eMolecules_1019_20197
  -OEChem-05261901553D

  8  7  0     0  0  0  0  0  0999 V2000
   -0.4261   -0.5996   -0.8105 C   0  0  0  0  0  0  0  0  0  0  0  0
    0.4051   -0.5219   -2.0012 N   0  0  0  0  0  0  0  0  0  0  0  0
    1.6711   -1.1271   -1.6306 O   0  0  0  0  0  0  0  0  0  0  0  0
   -0.0521    0.0863   -0.0459 H   0  0  0  0  0  0  0  0  0  0  0  0
   -0.4148   -1.6159   -0.4074 H   0  0  0  0  0  0  0  0  0  0  0  0
   -1.4577   -0.3295   -1.0514 H   0  0  0  0  0  0  0  0  0  0  0  0
    0.0655   -1.1579   -2.7218 H   0  0  0  0  0  0  0  0  0  0  0  0
    1.9505   -0.5503   -0.8986 H   0  0  0  0  0  0  0  0  0  0  0  0
  1  2  1  0  0  0  0
  2  3  1  0  0  0  0
  1  4  1  0  0  0  0
  1  5  1  0  0  0  0
  1  6  1  0  0  0  0
  2  7  1  0  0  0  0
  3  8  1  0  0  0  0
M  END
$$$$
