eMolecules_1020_21264
  -OEChem-05261901553D

 34 36  0     0  0  0  0  0  0999 V2000
    1.8853   -1.0361   -0.1124 C   0  0  0  0  0  0  0  0  0  0  0  0
   -1.6567   -2.5572    6.1636 C   0  0  0  0  0  0  0  0  0  0  0  0
    5.0370    0.2850    6.4123 C   0  0  0  0  0  0  0  0  0  0  0  0
    0.6653   -0.9003    0.5500 C   0  0  0  0  0  0  0  0  0  0  0  0
    3.0625   -1.1933    0.6192 C   0  0  0  0  0  0  0  0  0  0  0  0
   -0.9596   -3.3956    5.2937 C   0  0  0  0  0  0  0  0  0  0  0  0
   -1.2345   -1.2411    6.3519 C   0  0  0  0  0  0  0  0  0  0  0  0
    4.3945    1.1512    5.5277 C   0  0  0  0  0  0  0  0  0  0  0  0
    4.6039   -1.0354    6.5337 C   0  0  0  0  0  0  0  0  0  0  0  0
    0.6225   -0.9215    1.9440 C   0  0  0  0  0  0  0  0  0  0  0  0
    3.0197   -1.2145    2.0132 C   0  0  0  0  0  0  0  0  0  0  0  0
    0.1597   -2.9180    4.6122 C   0  0  0  0  0  0  0  0  0  0  0  0
   -0.1151   -0.7635    5.6704 C   0  0  0  0  0  0  0  0  0  0  0  0
    3.3188    0.6971    4.7646 C   0  0  0  0  0  0  0  0  0  0  0  0
    3.5282   -1.4895    5.7706 C   0  0  0  0  0  0  0  0  0  0  0  0
    1.7997   -1.0786    2.6757 C   0  0  0  0  0  0  0  0  0  0  0  0
    0.5821   -1.6020    4.8005 C   0  0  0  0  0  0  0  0  0  0  0  0
    2.8856   -0.6233    4.8860 C   0  0  0  0  0  0  0  0  0  0  0  0
    1.7568   -1.1003    4.0852 N   0  0  0  0  0  0  0  0  0  0  0  0
    1.9186   -1.0193   -1.1980 H   0  0  0  0  0  0  0  0  0  0  0  0
   -2.5283   -2.9292    6.6945 H   0  0  0  0  0  0  0  0  0  0  0  0
    5.8745    0.6388    7.0066 H   0  0  0  0  0  0  0  0  0  0  0  0
   -0.2509   -0.7778   -0.0197 H   0  0  0  0  0  0  0  0  0  0  0  0
    4.0125   -1.2990    0.1031 H   0  0  0  0  0  0  0  0  0  0  0  0
   -1.2884   -4.4200    5.1473 H   0  0  0  0  0  0  0  0  0  0  0  0
   -1.7774   -0.5884    7.0295 H   0  0  0  0  0  0  0  0  0  0  0  0
    4.7317    2.1790    5.4333 H   0  0  0  0  0  0  0  0  0  0  0  0
    5.1044   -1.7098    7.2227 H   0  0  0  0  0  0  0  0  0  0  0  0
   -0.3332   -0.8148    2.4506 H   0  0  0  0  0  0  0  0  0  0  0  0
    3.9435   -1.3378    2.5729 H   0  0  0  0  0  0  0  0  0  0  0  0
    0.6961   -3.5794    3.9366 H   0  0  0  0  0  0  0  0  0  0  0  0
    0.2046    0.2639    5.8249 H   0  0  0  0  0  0  0  0  0  0  0  0
    2.8249    1.3800    4.0783 H   0  0  0  0  0  0  0  0  0  0  0  0
    3.1996   -2.5206    5.8735 H   0  0  0  0  0  0  0  0  0  0  0  0
  1  4  1  0  0  0  0
  1  5  2  0  0  0  0
  2  6  1  0  0  0  0
  2  7  2  0  0  0  0
  3  8  1  0  0  0  0
  3  9  2  0  0  0  0
  4 10  2  0  0  0  0
  5 11  1  0  0  0  0
  6 12  2  0  0  0  0
  7 13  1  0  0  0  0
  8 14  2  0  0  0  0
  9 15  1  0  0  0  0
 10 16  1  0  0  0  0
 11 16  2  0  0  0  0
 12 17  1  0  0  0  0
 13 17  2  0  0  0  0
 14 18  1  0  0  0  0
 15 18  2  0  0  0  0
 16 19  1  0  0  0  0
 17 19  1  0  0  0  0
 18 19  1  0  0  0  0
  1 20  1  0  0  0  0
  2 21  1  0  0  0  0
  3 22  1  0  0  0  0
  4 23  1  0  0  0  0
  5 24  1  0  0  0  0
  6 25  1  0  0  0  0
  7 26  1  0  0  0  0
  8 27  1  0  0  0  0
  9 28  1  0  0  0  0
 10 29  1  0  0  0  0
 11 30  1  0  0  0  0
 12 31  1  0  0  0  0
 13 32  1  0  0  0  0
 14 33  1  0  0  0  0
 15 34  1  0  0  0  0
M  END
$$$$
