eMolecules_1018_19281
  -OEChem-05261901553D

 10  9  0     0  0  0  0  0  0999 V2000
    0.9191   -0.4307    0.4014 C   0  0  0  0  0  0  0  0  0  0  0  0
   -0.4833   -1.1695    2.5318 N   0  0  0  0  0  0  0  0  0  0  0  0
   -0.2872   -2.7459    0.5087 O   0  0  0  0  0  0  0  0  0  0  0  0
    1.7325   -2.3515    1.9752 O   0  0  0  0  0  0  0  0  0  0  0  0
    0.5149   -1.8779    1.3476 S   0  0  0  0  0  0  0  0  0  0  0  0
    1.5734   -0.7278   -0.4197 H   0  0  0  0  0  0  0  0  0  0  0  0
   -0.0070   -0.0013    0.0163 H   0  0  0  0  0  0  0  0  0  0  0  0
    1.4262    0.2787    1.0571 H   0  0  0  0  0  0  0  0  0  0  0  0
   -0.0383   -0.5747    3.2415 H   0  0  0  0  0  0  0  0  0  0  0  0
   -1.4138   -0.8435    2.2427 H   0  0  0  0  0  0  0  0  0  0  0  0
  1  5  1  0  0  0  0
  2  5  1  0  0  0  0
  3  5  2  0  0  0  0
  4  5  2  0  0  0  0
  1  6  1  0  0  0  0
  1  7  1  0  0  0  0
  1  8  1  0  0  0  0
  2  9  1  0  0  0  0
  2 10  1  0  0  0  0
M  END
$$$$
