eMolecules_2411_1417084
  -OEChem-05261901553D

 17 17  0     0  0  0  0  0  0999 V2000
   -1.2015    0.8599    3.8348 C   0  0  0  0  0  0  0  0  0  0  0  0
   -0.8684    1.4201    5.0680 C   0  0  0  0  0  0  0  0  0  0  0  0
   -0.4108   -0.1533    3.2926 C   0  0  0  0  0  0  0  0  0  0  0  0
    0.2554    0.9672    5.7590 C   0  0  0  0  0  0  0  0  0  0  0  0
    0.7130   -0.6062    3.9836 C   0  0  0  0  0  0  0  0  0  0  0  0
    1.0462   -0.0460    5.2168 C   0  0  0  0  0  0  0  0  0  0  0  0
    1.8054   -1.8710    7.0332 N   0  0  0  0  0  0  0  0  0  0  0  0
    3.3859   -1.1938    5.1240 O   0  0  0  0  0  0  0  0  0  0  0  0
    2.9033    0.4608    6.9597 O   0  0  0  0  0  0  0  0  0  0  0  0
    0.7015   -1.5220    7.7683 F   0  0  0  0  0  0  0  0  0  0  0  0
    2.4547   -0.6103    6.0806 S   0  0  0  0  0  0  0  0  0  0  0  0
   -2.0761    1.2125    3.2959 H   0  0  0  0  0  0  0  0  0  0  0  0
   -1.4831    2.2097    5.4900 H   0  0  0  0  0  0  0  0  0  0  0  0
   -0.6700   -0.5887    2.3321 H   0  0  0  0  0  0  0  0  0  0  0  0
    0.5065    1.4112    6.7186 H   0  0  0  0  0  0  0  0  0  0  0  0
    1.3226   -1.3951    3.5513 H   0  0  0  0  0  0  0  0  0  0  0  0
    1.7876   -2.8230    6.6477 H   0  0  0  0  0  0  0  0  0  0  0  0
  1  2  1  0  0  0  0
  1  3  2  0  0  0  0
  2  4  2  0  0  0  0
  3  5  1  0  0  0  0
  4  6  1  0  0  0  0
  5  6  2  0  0  0  0
  6 11  1  0  0  0  0
  7 10  1  0  0  0  0
  7 11  1  0  0  0  0
  8 11  2  0  0  0  0
  9 11  2  0  0  0  0
  1 12  1  0  0  0  0
  2 13  1  0  0  0  0
  3 14  1  0  0  0  0
  4 15  1  0  0  0  0
  5 16  1  0  0  0  0
  7 17  1  0  0  0  0
M  END
$$$$
