eMolecules_1066_67948
  -OEChem-05261901553D

 11 10  0     0  0  0  0  0  0999 V2000
    1.2124   -2.6748   -0.5066 C   0  0  0  0  0  0  0  0  0  0  0  0
    0.6987   -0.2622   -0.8004 C   0  0  0  0  0  0  0  0  0  0  0  0
    2.5467   -0.9443    0.6746 C   0  0  0  0  0  0  0  0  0  0  0  0
    0.9003   -3.7854   -0.6294 N   0  0  0  0  0  0  0  0  0  0  0  0
    1.5753   -1.3830   -0.3639 N   0  0  0  0  0  0  0  0  0  0  0  0
    0.0408    0.0409    0.0182 H   0  0  0  0  0  0  0  0  0  0  0  0
    0.0839   -0.5719   -1.6498 H   0  0  0  0  0  0  0  0  0  0  0  0
    1.3048    0.5966   -1.1011 H   0  0  0  0  0  0  0  0  0  0  0  0
    3.5638   -0.9774    0.2755 H   0  0  0  0  0  0  0  0  0  0  0  0
    2.4895   -1.6008    1.5471 H   0  0  0  0  0  0  0  0  0  0  0  0
    2.3257    0.0787    0.9907 H   0  0  0  0  0  0  0  0  0  0  0  0
  1  4  3  0  0  0  0
  1  5  1  0  0  0  0
  2  5  1  0  0  0  0
  3  5  1  0  0  0  0
  2  6  1  0  0  0  0
  2  7  1  0  0  0  0
  2  8  1  0  0  0  0
  3  9  1  0  0  0  0
  3 10  1  0  0  0  0
  3 11  1  0  0  0  0
M  END
$$$$
