eMolecules_6331_5361673
  -OEChem-05261901553D

 38 37  0     0  0  0  0  0  0999 V2000
    0.6123   -0.3445   -0.8766 C   0  0  0  0  0  0  0  0  0  0  0  0
   -1.2865    3.1053    2.7557 C   0  0  0  0  0  0  0  0  0  0  0  0
    0.7720    3.6437    4.0978 C   0  0  0  0  0  0  0  0  0  0  0  0
   -5.4207   -3.0038    0.8329 C   0  0  0  0  0  0  0  0  0  0  0  0
    1.6074    0.7966   -0.8611 C   0  0  0  0  0  0  0  0  0  0  0  0
   -3.0933   -2.7075    0.6975 C   0  0  0  0  0  0  0  0  0  0  0  0
    2.3503    0.8885    0.4662 C   0  0  0  0  0  0  0  0  0  0  0  0
    1.0103    2.9698    1.6446 C   0  0  0  0  0  0  0  0  0  0  0  0
   -1.9864   -1.6991    0.4584 C   0  0  0  0  0  0  0  0  0  0  0  0
    0.1377    3.6625    2.7053 C   0  0  0  0  0  0  0  0  0  0  0  0
   -0.7425    0.0654   -1.0937 N   0  0  0  0  0  0  0  0  0  0  0  0
    0.9512   -1.5085   -0.6889 O   0  0  0  0  0  0  0  0  0  0  0  0
   -3.2983   -0.1849   -1.2117 O   0  0  0  0  0  0  0  0  0  0  0  0
   -1.8520   -2.0364   -2.1317 O   0  0  0  0  0  0  0  0  0  0  0  0
   -4.3660   -2.0818    0.5950 O   0  0  0  0  0  0  0  0  0  0  0  0
    1.2269    1.1893    1.8639 S   0  0  0  0  0  0  0  0  0  0  0  0
   -2.0890   -0.9835   -1.1642 S   0  0  0  0  0  0  0  0  0  0  0  0
   -1.3055    2.0514    3.0503 H   0  0  0  0  0  0  0  0  0  0  0  0
   -1.8890    3.6611    3.4824 H   0  0  0  0  0  0  0  0  0  0  0  0
   -1.7751    3.1975    1.7800 H   0  0  0  0  0  0  0  0  0  0  0  0
    0.8903    2.6256    4.4820 H   0  0  0  0  0  0  0  0  0  0  0  0
    0.1471    4.1937    4.8100 H   0  0  0  0  0  0  0  0  0  0  0  0
    1.7573    4.1212    4.0830 H   0  0  0  0  0  0  0  0  0  0  0  0
   -6.3812   -2.4901    0.7462 H   0  0  0  0  0  0  0  0  0  0  0  0
   -5.3131   -3.4316    1.8329 H   0  0  0  0  0  0  0  0  0  0  0  0
   -5.3689   -3.8027    0.0895 H   0  0  0  0  0  0  0  0  0  0  0  0
    2.3285    0.5944   -1.6627 H   0  0  0  0  0  0  0  0  0  0  0  0
    1.1193    1.7437   -1.1172 H   0  0  0  0  0  0  0  0  0  0  0  0
   -3.0507   -3.5061   -0.0496 H   0  0  0  0  0  0  0  0  0  0  0  0
   -3.0156   -3.1619    1.6899 H   0  0  0  0  0  0  0  0  0  0  0  0
    2.9055   -0.0332    0.6675 H   0  0  0  0  0  0  0  0  0  0  0  0
    3.0689    1.7132    0.4299 H   0  0  0  0  0  0  0  0  0  0  0  0
    0.5770    3.1295    0.6512 H   0  0  0  0  0  0  0  0  0  0  0  0
    2.0070    3.4245    1.6349 H   0  0  0  0  0  0  0  0  0  0  0  0
   -0.9966   -2.1589    0.5325 H   0  0  0  0  0  0  0  0  0  0  0  0
   -2.0569   -0.8699    1.1678 H   0  0  0  0  0  0  0  0  0  0  0  0
    0.0590    4.7158    2.4036 H   0  0  0  0  0  0  0  0  0  0  0  0
   -0.9188    1.0709   -1.2171 H   0  0  0  0  0  0  0  0  0  0  0  0
  1  5  1  0  0  0  0
  1 11  1  0  0  0  0
  1 12  2  0  0  0  0
  2 10  1  0  0  0  0
  3 10  1  0  0  0  0
  4 15  1  0  0  0  0
  5  7  1  0  0  0  0
  6  9  1  0  0  0  0
  6 15  1  0  0  0  0
  7 16  1  0  0  0  0
  8 10  1  0  0  0  0
  8 16  1  0  0  0  0
  9 17  1  0  0  0  0
 11 17  1  0  0  0  0
 13 17  2  0  0  0  0
 14 17  2  0  0  0  0
  2 18  1  0  0  0  0
  2 19  1  0  0  0  0
  2 20  1  0  0  0  0
  3 21  1  0  0  0  0
  3 22  1  0  0  0  0
  3 23  1  0  0  0  0
  4 24  1  0  0  0  0
  4 25  1  0  0  0  0
  4 26  1  0  0  0  0
  5 27  1  0  0  0  0
  5 28  1  0  0  0  0
  6 29  1  0  0  0  0
  6 30  1  0  0  0  0
  7 31  1  0  0  0  0
  7 32  1  0  0  0  0
  8 33  1  0  0  0  0
  8 34  1  0  0  0  0
  9 35  1  0  0  0  0
  9 36  1  0  0  0  0
 10 37  1  0  0  0  0
 11 38  1  0  0  0  0
M  END
$$$$
