eMolecules_2296_1301311
  -OEChem-05261901553D

 25 26  0     1  0  0  0  0  0999 V2000
   -1.5694   -0.7262    1.3812 C   0  0  0  0  0  0  0  0  0  0  0  0
   -0.5462   -0.8126    0.4577 C   0  0  0  0  0  0  0  0  0  0  0  0
   -2.0337   -2.0130    1.7453 C   0  0  0  0  0  0  0  0  0  0  0  0
   -1.3654   -3.0258    1.1023 C   0  0  0  0  0  0  0  0  0  0  0  0
   -3.3318   -3.4981    2.8502 C   0  0  0  0  0  0  0  0  0  0  0  0
   -1.6544   -4.4240    1.3039 C   0  0  0  0  0  0  0  0  0  0  0  0
   -2.9938   -6.2495    4.0048 C   0  0  0  0  0  0  0  0  0  0  0  0
   -4.3709   -8.2183    1.9125 C   0  0  0  0  0  0  0  0  0  0  0  0
   -3.0720   -2.2368    2.6694 N   0  0  0  0  0  0  0  0  0  0  0  0
   -2.6937   -4.5683    2.2320 N   0  0  0  0  0  0  0  0  0  0  0  0
   -3.1341   -5.9134    2.5741 N   0  0  2  0  0  0  0  0  0  0  0  0
   -1.0775   -5.3530    0.7460 O   0  0  0  0  0  0  0  0  0  0  0  0
   -4.3670   -6.1479    0.3171 O   0  0  0  0  0  0  0  0  0  0  0  0
   -5.7106   -6.0395    2.4423 O   0  0  0  0  0  0  0  0  0  0  0  0
   -0.1700   -2.4410    0.0514 S   0  0  0  0  0  0  0  0  0  0  0  0
   -4.5180   -6.4537    1.7269 S   0  0  0  0  0  0  0  0  0  0  0  0
   -1.9505    0.2119    1.7633 H   0  0  0  0  0  0  0  0  0  0  0  0
    0.0010   -0.0004    0.0004 H   0  0  0  0  0  0  0  0  0  0  0  0
   -4.1258   -3.8028    3.5509 H   0  0  0  0  0  0  0  0  0  0  0  0
   -3.3421   -7.2695    4.1871 H   0  0  0  0  0  0  0  0  0  0  0  0
   -3.5856   -5.5613    4.6145 H   0  0  0  0  0  0  0  0  0  0  0  0
   -1.9464   -6.1756    4.3095 H   0  0  0  0  0  0  0  0  0  0  0  0
   -5.2136   -8.6895    1.4042 H   0  0  0  0  0  0  0  0  0  0  0  0
   -3.4282   -8.5344    1.4635 H   0  0  0  0  0  0  0  0  0  0  0  0
   -4.3859   -8.4549    2.9775 H   0  0  0  0  0  0  0  0  0  0  0  0
  1  2  2  0  0  0  0
  1  3  1  0  0  0  0
  2 15  1  0  0  0  0
  3  4  2  0  0  0  0
  3  9  1  0  0  0  0
  4  6  1  0  0  0  0
  4 15  1  0  0  0  0
  5  9  2  0  0  0  0
  5 10  1  0  0  0  0
  6 10  1  0  0  0  0
  6 12  2  0  0  0  0
  7 11  1  0  0  0  0
  8 16  1  0  0  0  0
 10 11  1  0  0  0  0
 11 16  1  0  0  0  0
 13 16  2  0  0  0  0
 14 16  2  0  0  0  0
  1 17  1  0  0  0  0
  2 18  1  0  0  0  0
  5 19  1  0  0  0  0
  7 20  1  0  0  0  0
  7 21  1  0  0  0  0
  7 22  1  0  0  0  0
  8 23  1  0  0  0  0
  8 24  1  0  0  0  0
  8 25  1  0  0  0  0
M  END
$$$$
