eMolecules_1132_134798
  -OEChem-05261901553D

 25 25  0     1  0  0  0  0  0999 V2000
    0.1850    4.9249   -2.5459 C   0  0  0  0  0  0  0  0  0  0  0  0
   -0.1554    4.8200   -1.1973 C   0  0  0  0  0  0  0  0  0  0  0  0
    0.3702    3.7728   -3.3102 C   0  0  0  0  0  0  0  0  0  0  0  0
   -0.3103    3.5629   -0.6129 C   0  0  0  0  0  0  0  0  0  0  0  0
    0.2153    2.5158   -2.7258 C   0  0  0  0  0  0  0  0  0  0  0  0
   -0.1250    2.4108   -1.3772 C   0  0  0  0  0  0  0  0  0  0  0  0
   -1.6407    0.5625   -0.8390 C   0  0  0  0  0  0  0  0  0  0  0  0
    2.2736   -0.0637   -1.1027 C   0  0  0  0  0  0  0  0  0  0  0  0
    1.3618    1.0188    1.5733 C   0  0  0  0  0  0  0  0  0  0  0  0
   -0.2843    1.1194   -0.7773 N   0  0  3  0  0  0  0  0  0  0  0  0
    0.8968    0.2670    0.0084 P   0  0  0  0  0  0  0  0  0  0  0  0
    3.4245   -1.1715   -0.3365 Cl  0  0  0  0  0  0  0  0  0  0  0  0
    1.5720   -0.8970   -2.5226 Cl  0  0  0  0  0  0  0  0  0  0  0  0
    3.1069    1.3881   -1.6553 Cl  0  0  0  0  0  0  0  0  0  0  0  0
   -0.1395    1.2566    2.5090 Cl  0  0  0  0  0  0  0  0  0  0  0  0
    2.0360    2.6378    1.2492 Cl  0  0  0  0  0  0  0  0  0  0  0  0
    2.5038    0.0746    2.5203 Cl  0  0  0  0  0  0  0  0  0  0  0  0
    0.3058    5.9038   -3.0009 H   0  0  0  0  0  0  0  0  0  0  0  0
   -0.2995    5.7169   -0.6025 H   0  0  0  0  0  0  0  0  0  0  0  0
    0.6353    3.8548   -4.3604 H   0  0  0  0  0  0  0  0  0  0  0  0
   -0.5756    3.4920    0.4387 H   0  0  0  0  0  0  0  0  0  0  0  0
    0.3620    1.6250   -3.3313 H   0  0  0  0  0  0  0  0  0  0  0  0
   -1.6660   -0.4192   -0.3591 H   0  0  0  0  0  0  0  0  0  0  0  0
   -1.9576    0.4538   -1.8798 H   0  0  0  0  0  0  0  0  0  0  0  0
   -2.3443    1.2234   -0.3257 H   0  0  0  0  0  0  0  0  0  0  0  0
  1  2  1  0  0  0  0
  1  3  2  0  0  0  0
  2  4  2  0  0  0  0
  3  5  1  0  0  0  0
  4  6  1  0  0  0  0
  5  6  2  0  0  0  0
  6 10  1  0  0  0  0
  7 10  1  0  0  0  0
  8 11  1  0  0  0  0
  8 12  1  0  0  0  0
  8 13  1  0  0  0  0
  8 14  1  0  0  0  0
  9 11  1  0  0  0  0
  9 15  1  0  0  0  0
  9 16  1  0  0  0  0
  9 17  1  0  0  0  0
 10 11  1  0  0  0  0
  1 18  1  0  0  0  0
  2 19  1  0  0  0  0
  3 20  1  0  0  0  0
  4 21  1  0  0  0  0
  5 22  1  0  0  0  0
  7 23  1  0  0  0  0
  7 24  1  0  0  0  0
  7 25  1  0  0  0  0
M  END
$$$$
