eMolecules_5912_4936853
  -OEChem-05261901553D

 50 50  0     1  0  0  0  0  0999 V2000
   -2.6121   -2.0446   -3.3873 C   0  0  0  0  0  0  0  0  0  0  0  0
   -1.3998   -2.6191   -3.0054 C   0  0  0  0  0  0  0  0  0  0  0  0
   -3.0550   -0.8751   -2.7693 C   0  0  0  0  0  0  0  0  0  0  0  0
   -0.6304   -2.0243   -2.0055 C   0  0  0  0  0  0  0  0  0  0  0  0
   -2.2856   -0.2803   -1.7694 C   0  0  0  0  0  0  0  0  0  0  0  0
   -1.0733   -0.8548   -1.3875 C   0  0  0  0  0  0  0  0  0  0  0  0
   -2.0995    4.1044    0.7913 C   0  0  0  0  0  0  0  0  0  0  0  0
    0.9211    2.6761   -4.0458 C   0  0  0  0  0  0  0  0  0  0  0  0
    1.3605   -3.3480    1.8221 C   0  0  0  0  0  0  0  0  0  0  0  0
    2.4323   -2.0542   -0.0468 C   0  0  0  0  0  0  0  0  0  0  0  0
   -1.7780   -2.9564    0.8546 C   0  0  0  0  0  0  0  0  0  0  0  0
   -2.5129   -0.7408    1.7855 C   0  0  0  0  0  0  0  0  0  0  0  0
   -0.7671    3.4702    0.4533 C   0  0  0  0  0  0  0  0  0  0  0  0
    1.1059    2.5846   -2.5461 C   0  0  0  0  0  0  0  0  0  0  0  0
    1.1130   -2.4577    0.6070 C   0  0  0  0  0  0  0  0  0  0  0  0
   -1.3773   -1.7585    1.7120 C   0  0  0  0  0  0  0  0  0  0  0  0
   -0.2863   -0.2459   -0.3645 N   0  0  3  0  0  0  0  0  0  0  0  0
   -0.9902    2.1496   -0.0212 O   0  0  0  0  0  0  0  0  0  0  0  0
    0.2697    1.5539   -2.0388 O   0  0  0  0  0  0  0  0  0  0  0  0
    0.1466   -0.9716    1.0685 P   0  0  0  0  0  0  0  0  0  0  0  0
    0.3311    1.3049   -0.4368 P   0  0  0  0  0  0  0  0  0  0  0  0
   -3.2112   -2.5080   -4.1658 H   0  0  0  0  0  0  0  0  0  0  0  0
   -1.0552   -3.5295   -3.4865 H   0  0  0  0  0  0  0  0  0  0  0  0
   -3.9991   -0.4279   -3.0668 H   0  0  0  0  0  0  0  0  0  0  0  0
    0.3127   -2.4800   -1.7151 H   0  0  0  0  0  0  0  0  0  0  0  0
   -2.6408    0.6311   -1.2950 H   0  0  0  0  0  0  0  0  0  0  0  0
   -2.7428    4.1549   -0.0916 H   0  0  0  0  0  0  0  0  0  0  0  0
   -2.6130    3.5318    1.5706 H   0  0  0  0  0  0  0  0  0  0  0  0
   -1.9566    5.1172    1.1825 H   0  0  0  0  0  0  0  0  0  0  0  0
    1.1942    1.7348   -4.5308 H   0  0  0  0  0  0  0  0  0  0  0  0
   -0.1192    2.9123   -4.2929 H   0  0  0  0  0  0  0  0  0  0  0  0
    1.5374    3.4798   -4.4622 H   0  0  0  0  0  0  0  0  0  0  0  0
    1.9550   -2.8171    2.5737 H   0  0  0  0  0  0  0  0  0  0  0  0
    0.4227   -3.6583    2.2975 H   0  0  0  0  0  0  0  0  0  0  0  0
    1.9114   -4.2546    1.5471 H   0  0  0  0  0  0  0  0  0  0  0  0
    3.0649   -1.4887    0.6469 H   0  0  0  0  0  0  0  0  0  0  0  0
    2.2505   -1.4179   -0.9199 H   0  0  0  0  0  0  0  0  0  0  0  0
    3.0033   -2.9275   -0.3831 H   0  0  0  0  0  0  0  0  0  0  0  0
   -2.0059   -2.6383   -0.1687 H   0  0  0  0  0  0  0  0  0  0  0  0
   -0.9784   -3.7043    0.8008 H   0  0  0  0  0  0  0  0  0  0  0  0
   -2.6715   -3.4508    1.2523 H   0  0  0  0  0  0  0  0  0  0  0  0
   -2.7702   -0.3574    0.7915 H   0  0  0  0  0  0  0  0  0  0  0  0
   -2.2228    0.1158    2.4039 H   0  0  0  0  0  0  0  0  0  0  0  0
   -3.4205   -1.1749    2.2211 H   0  0  0  0  0  0  0  0  0  0  0  0
   -0.1286    3.4228    1.3404 H   0  0  0  0  0  0  0  0  0  0  0  0
   -0.2559    4.0431   -0.3261 H   0  0  0  0  0  0  0  0  0  0  0  0
    0.8310    3.5292   -2.0673 H   0  0  0  0  0  0  0  0  0  0  0  0
    2.1455    2.3478   -2.3011 H   0  0  0  0  0  0  0  0  0  0  0  0
    0.5174   -3.0183   -0.1226 H   0  0  0  0  0  0  0  0  0  0  0  0
   -1.1569   -2.1115    2.7259 H   0  0  0  0  0  0  0  0  0  0  0  0
  1  2  1  0  0  0  0
  1  3  2  0  0  0  0
  2  4  2  0  0  0  0
  3  5  1  0  0  0  0
  4  6  1  0  0  0  0
  5  6  2  0  0  0  0
  6 17  1  0  0  0  0
  7 13  1  0  0  0  0
  8 14  1  0  0  0  0
  9 15  1  0  0  0  0
 10 15  1  0  0  0  0
 11 16  1  0  0  0  0
 12 16  1  0  0  0  0
 13 18  1  0  0  0  0
 14 19  1  0  0  0  0
 15 20  1  0  0  0  0
 16 20  1  0  0  0  0
 17 20  1  0  0  0  0
 17 21  1  0  0  0  0
 18 21  1  0  0  0  0
 19 21  1  0  0  0  0
  1 22  1  0  0  0  0
  2 23  1  0  0  0  0
  3 24  1  0  0  0  0
  4 25  1  0  0  0  0
  5 26  1  0  0  0  0
  7 27  1  0  0  0  0
  7 28  1  0  0  0  0
  7 29  1  0  0  0  0
  8 30  1  0  0  0  0
  8 31  1  0  0  0  0
  8 32  1  0  0  0  0
  9 33  1  0  0  0  0
  9 34  1  0  0  0  0
  9 35  1  0  0  0  0
 10 36  1  0  0  0  0
 10 37  1  0  0  0  0
 10 38  1  0  0  0  0
 11 39  1  0  0  0  0
 11 40  1  0  0  0  0
 11 41  1  0  0  0  0
 12 42  1  0  0  0  0
 12 43  1  0  0  0  0
 12 44  1  0  0  0  0
 13 45  1  0  0  0  0
 13 46  1  0  0  0  0
 14 47  1  0  0  0  0
 14 48  1  0  0  0  0
 15 49  1  0  0  0  0
 16 50  1  0  0  0  0
M  END
$$$$
