eMolecules_5967_4992741
  -OEChem-05261901553D

 27 27  0     0  0  0  0  0  0999 V2000
   -1.6250   -2.2629   -4.0165 C   0  0  0  0  0  0  0  0  0  0  0  0
   -0.5994   -1.5489   -4.6362 C   0  0  0  0  0  0  0  0  0  0  0  0
   -1.5819   -2.4937   -2.6415 C   0  0  0  0  0  0  0  0  0  0  0  0
    0.4693   -1.0659   -3.8810 C   0  0  0  0  0  0  0  0  0  0  0  0
   -0.5133   -2.0108   -1.8863 C   0  0  0  0  0  0  0  0  0  0  0  0
    0.5124   -1.2968   -2.5061 C   0  0  0  0  0  0  0  0  0  0  0  0
    1.4937    2.0362   -1.8783 C   0  0  0  0  0  0  0  0  0  0  0  0
    2.9550    4.6980   -5.3959 C   0  0  0  0  0  0  0  0  0  0  0  0
    2.8416    3.3285   -4.7608 C   0  0  0  0  0  0  0  0  0  0  0  0
    1.2852    0.8560   -1.1086 N   0  0  0  0  0  0  0  0  0  0  0  0
    2.9933   -0.5327   -2.4523 O   0  0  0  0  0  0  0  0  0  0  0  0
    1.9871   -1.5150   -0.3648 O   0  0  0  0  0  0  0  0  0  0  0  0
    2.1517    3.4469   -3.5284 O   0  0  0  0  0  0  0  0  0  0  0  0
    2.1011    2.1072   -3.0179 O   0  3  0  0  0  0  0  0  0  0  0  0
    1.8688   -0.6873   -1.5498 S   0  0  0  0  0  0  0  0  0  0  0  0
   -2.4571   -2.6398   -4.6040 H   0  0  0  0  0  0  0  0  0  0  0  0
   -0.6320   -1.3699   -5.7069 H   0  0  0  0  0  0  0  0  0  0  0  0
   -2.3802   -3.0502   -2.1594 H   0  0  0  0  0  0  0  0  0  0  0  0
    1.2635   -0.5117   -4.3740 H   0  0  0  0  0  0  0  0  0  0  0  0
   -0.4892   -2.1976   -0.8161 H   0  0  0  0  0  0  0  0  0  0  0  0
    1.0628    2.9137   -1.3659 H   0  0  0  0  0  0  0  0  0  0  0  0
    1.9655    5.1216   -5.5892 H   0  0  0  0  0  0  0  0  0  0  0  0
    3.5108    5.3807   -4.7448 H   0  0  0  0  0  0  0  0  0  0  0  0
    3.5054    4.6407   -6.3408 H   0  0  0  0  0  0  0  0  0  0  0  0
    3.8346    2.9106   -4.5701 H   0  0  0  0  0  0  0  0  0  0  0  0
    2.2853    2.6480   -5.4122 H   0  0  0  0  0  0  0  0  0  0  0  0
    0.7842    0.9380   -0.2148 H   0  0  0  0  0  0  0  0  0  0  0  0
  1  2  1  0  0  0  0
  1  3  2  0  0  0  0
  2  4  2  0  0  0  0
  3  5  1  0  0  0  0
  4  6  1  0  0  0  0
  5  6  2  0  0  0  0
  6 15  1  0  0  0  0
  7 10  1  0  0  0  0
  7 14  2  0  0  0  0
  8  9  1  0  0  0  0
  9 13  1  0  0  0  0
 10 15  1  0  0  0  0
 11 15  2  0  0  0  0
 12 15  2  0  0  0  0
 13 14  1  0  0  0  0
  1 16  1  0  0  0  0
  2 17  1  0  0  0  0
  3 18  1  0  0  0  0
  4 19  1  0  0  0  0
  5 20  1  0  0  0  0
  7 21  1  0  0  0  0
  8 22  1  0  0  0  0
  8 23  1  0  0  0  0
  8 24  1  0  0  0  0
  9 25  1  0  0  0  0
  9 26  1  0  0  0  0
 10 27  1  0  0  0  0
M  CHG  1  14   1
M  END
$$$$
