eMolecules_2397_1403188
  -OEChem-05261901553D

 28 29  0     0  0  0  0  0  0999 V2000
   -1.2910   -2.3465   -3.7712 C   0  0  0  0  0  0  0  0  0  0  0  0
    4.4003    0.0581    1.7003 C   0  0  0  0  0  0  0  0  0  0  0  0
   -0.7755   -1.3431   -2.9008 C   0  0  0  0  0  0  0  0  0  0  0  0
    3.0992    0.5706    1.9736 C   0  0  0  0  0  0  0  0  0  0  0  0
   -2.6021   -2.6565   -3.4844 C   0  0  0  0  0  0  0  0  0  0  0  0
    4.6660    0.0147    0.3493 C   0  0  0  0  0  0  0  0  0  0  0  0
   -1.7126   -0.9242   -1.9819 C   0  0  0  0  0  0  0  0  0  0  0  0
    2.4201    0.8996    0.8210 C   0  0  0  0  0  0  0  0  0  0  0  0
    0.0655   -2.0620    0.1836 C   0  0  0  0  0  0  0  0  0  0  0  0
   -0.0173    0.2204   -0.1912 N   0  0  0  0  0  0  0  0  0  0  0  0
   -2.5155   -0.2935    0.3725 O   0  0  0  0  0  0  0  0  0  0  0  0
   -1.9809    1.5634   -1.2404 O   0  0  0  0  0  0  0  0  0  0  0  0
    0.9447    2.6189   -0.4742 O   0  0  0  0  0  0  0  0  0  0  0  0
    0.2451    1.8555    1.8150 O   0  0  0  0  0  0  0  0  0  0  0  0
    0.0340   -0.7949    0.8307 O   0  0  0  0  0  0  0  0  0  0  0  0
   -3.2065   -1.7397   -2.1704 S   0  0  0  0  0  0  0  0  0  0  0  0
    3.3501    0.5903   -0.5831 S   0  0  0  0  0  0  0  0  0  0  0  0
   -1.6783    0.2629   -0.6744 S   0  0  0  0  0  0  0  0  0  0  0  0
    0.8135    1.5630    0.5118 S   0  0  0  0  0  0  0  0  0  0  0  0
   -0.7289   -2.8165   -4.5678 H   0  0  0  0  0  0  0  0  0  0  0  0
    5.1058   -0.2617    2.4560 H   0  0  0  0  0  0  0  0  0  0  0  0
    0.2319   -0.9500   -2.9482 H   0  0  0  0  0  0  0  0  0  0  0  0
    2.6846    0.6909    2.9662 H   0  0  0  0  0  0  0  0  0  0  0  0
   -3.2343   -3.3771   -3.9838 H   0  0  0  0  0  0  0  0  0  0  0  0
    5.5700   -0.3269   -0.1348 H   0  0  0  0  0  0  0  0  0  0  0  0
    0.1047   -2.8547    0.9347 H   0  0  0  0  0  0  0  0  0  0  0  0
    0.9418   -2.1182   -0.4671 H   0  0  0  0  0  0  0  0  0  0  0  0
   -0.8399   -2.1770   -0.4171 H   0  0  0  0  0  0  0  0  0  0  0  0
  1  3  1  0  0  0  0
  1  5  2  0  0  0  0
  2  4  1  0  0  0  0
  2  6  2  0  0  0  0
  3  7  2  0  0  0  0
  4  8  2  0  0  0  0
  5 16  1  0  0  0  0
  6 17  1  0  0  0  0
  7 16  1  0  0  0  0
  7 18  1  0  0  0  0
  8 17  1  0  0  0  0
  8 19  1  0  0  0  0
  9 15  1  0  0  0  0
 10 15  1  0  0  0  0
 10 18  1  0  0  0  0
 10 19  1  0  0  0  0
 11 18  2  0  0  0  0
 12 18  2  0  0  0  0
 13 19  2  0  0  0  0
 14 19  2  0  0  0  0
  1 20  1  0  0  0  0
  2 21  1  0  0  0  0
  3 22  1  0  0  0  0
  4 23  1  0  0  0  0
  5 24  1  0  0  0  0
  6 25  1  0  0  0  0
  9 26  1  0  0  0  0
  9 27  1  0  0  0  0
  9 28  1  0  0  0  0
M  END
$$$$
