eMolecules_1066_68761
  -OEChem-05261901543D

 11 11  0     0  0  0  0  0  0999 V2000
    0.4107   -0.1341   -0.5502 C   0  0  0  0  0  0  0  0  0  0  0  0
   -0.2468    0.7008    1.4812 C   0  0  0  0  0  0  0  0  0  0  0  0
   -1.3656   -0.1046    0.8570 C   0  0  0  0  0  0  0  0  0  0  0  0
    0.8403    0.4966    0.5835 N   0  0  0  0  0  0  0  0  0  0  0  0
   -0.9124   -0.4476   -0.4664 O   0  0  0  0  0  0  0  0  0  0  0  0
    1.2739   -0.5112   -1.9051 S   0  0  0  0  0  0  0  0  0  0  0  0
   -0.4785    1.7697    1.5082 H   0  0  0  0  0  0  0  0  0  0  0  0
    0.0149    0.3620    2.4867 H   0  0  0  0  0  0  0  0  0  0  0  0
   -1.5578   -1.0337    1.4030 H   0  0  0  0  0  0  0  0  0  0  0  0
   -2.2940    0.4688    0.7804 H   0  0  0  0  0  0  0  0  0  0  0  0
    1.7861    0.8341    0.7315 H   0  0  0  0  0  0  0  0  0  0  0  0
  1  4  1  0  0  0  0
  1  5  1  0  0  0  0
  1  6  2  0  0  0  0
  2  3  1  0  0  0  0
  2  4  1  0  0  0  0
  3  5  1  0  0  0  0
  2  7  1  0  0  0  0
  2  8  1  0  0  0  0
  3  9  1  0  0  0  0
  3 10  1  0  0  0  0
  4 11  1  0  0  0  0
M  END
$$$$
