eMolecules_2411_1416910
  -OEChem-05261901553D

 28 29  0     0  0  0  0  0  0999 V2000
    1.8851   -1.0363   -0.1124 C   0  0  0  0  0  0  0  0  0  0  0  0
   -0.5660   -4.1956    5.8522 C   0  0  0  0  0  0  0  0  0  0  0  0
    0.8924   -0.3290    0.5657 C   0  0  0  0  0  0  0  0  0  0  0  0
    2.8351   -1.7648    0.6035 C   0  0  0  0  0  0  0  0  0  0  0  0
   -1.1668   -3.2709    4.9981 C   0  0  0  0  0  0  0  0  0  0  0  0
    0.7975   -4.1037    6.1316 C   0  0  0  0  0  0  0  0  0  0  0  0
    0.8497   -0.3501    1.9597 C   0  0  0  0  0  0  0  0  0  0  0  0
    2.7924   -1.7860    1.9975 C   0  0  0  0  0  0  0  0  0  0  0  0
   -0.4042   -2.2542    4.4234 C   0  0  0  0  0  0  0  0  0  0  0  0
    1.5602   -3.0870    5.5568 C   0  0  0  0  0  0  0  0  0  0  0  0
    1.7997   -1.0786    2.6757 C   0  0  0  0  0  0  0  0  0  0  0  0
    0.9594   -2.1623    4.7027 C   0  0  0  0  0  0  0  0  0  0  0  0
    1.7558   -1.1004    4.1025 N   0  0  0  0  0  0  0  0  0  0  0  0
    2.4036    1.4059    4.1779 O   0  0  0  0  0  0  0  0  0  0  0  0
    2.2822    0.1252    6.3303 O   0  0  0  0  0  0  0  0  0  0  0  0
    0.2004    0.7983    5.1692 O   0  0  0  0  0  0  0  0  0  0  0  0
    1.7698    0.3868    4.9958 S   0  0  0  0  0  0  0  0  0  0  0  0
    1.9179   -1.0206   -1.1980 H   0  0  0  0  0  0  0  0  0  0  0  0
   -1.1601   -4.9868    6.3005 H   0  0  0  0  0  0  0  0  0  0  0  0
    0.1533    0.2384    0.0077 H   0  0  0  0  0  0  0  0  0  0  0  0
    3.6081   -2.3149    0.0748 H   0  0  0  0  0  0  0  0  0  0  0  0
   -2.2285   -3.3433    4.7807 H   0  0  0  0  0  0  0  0  0  0  0  0
    1.2648   -4.8244    6.7963 H   0  0  0  0  0  0  0  0  0  0  0  0
    0.0723    0.2053    2.4782 H   0  0  0  0  0  0  0  0  0  0  0  0
    3.5381   -2.3564    2.5455 H   0  0  0  0  0  0  0  0  0  0  0  0
   -0.8823   -1.5393    3.7585 H   0  0  0  0  0  0  0  0  0  0  0  0
    2.6222   -3.0251    5.7808 H   0  0  0  0  0  0  0  0  0  0  0  0
   -0.3773    0.1181    5.5866 H   0  0  0  0  0  0  0  0  0  0  0  0
  1  3  1  0  0  0  0
  1  4  2  0  0  0  0
  2  5  1  0  0  0  0
  2  6  2  0  0  0  0
  3  7  2  0  0  0  0
  4  8  1  0  0  0  0
  5  9  2  0  0  0  0
  6 10  1  0  0  0  0
  7 11  1  0  0  0  0
  8 11  2  0  0  0  0
  9 12  1  0  0  0  0
 10 12  2  0  0  0  0
 11 13  1  0  0  0  0
 12 13  1  0  0  0  0
 13 17  1  0  0  0  0
 14 17  2  0  0  0  0
 15 17  2  0  0  0  0
 16 17  1  0  0  0  0
  1 18  1  0  0  0  0
  2 19  1  0  0  0  0
  3 20  1  0  0  0  0
  4 21  1  0  0  0  0
  5 22  1  0  0  0  0
  6 23  1  0  0  0  0
  7 24  1  0  0  0  0
  8 25  1  0  0  0  0
  9 26  1  0  0  0  0
 10 27  1  0  0  0  0
 16 28  1  0  0  0  0
M  END
$$$$
