eMolecules_8896_7944456
  -OEChem-05261901553D

 12 11  0     0  0  0  0  0  0999 V2000
   -1.6191   -0.0184    0.0423 C   0  0  0  0  0  0  0  0  0  0  0  0
   -0.4426    0.3647    0.6499 N   0  0  0  0  0  0  0  0  0  0  0  0
   -1.7195   -0.6321   -1.0136 O   0  0  0  0  0  0  0  0  0  0  0  0
    1.4010   -1.4340   -0.1794 O   0  0  0  0  0  0  0  0  0  0  0  0
   -2.7038    0.3697    0.7646 O   0  0  0  0  0  0  0  0  0  0  0  0
    1.1975    0.8789   -1.3788 O   0  0  0  0  0  0  0  0  0  0  0  0
    2.1636    0.7949    0.9519 O   0  0  0  0  0  0  0  0  0  0  0  0
    1.1026    0.0283   -0.0030 P   0  0  0  0  0  0  0  0  0  0  0  0
   -0.4957    0.8717    1.5285 H   0  0  0  0  0  0  0  0  0  0  0  0
   -2.4717    0.8515    1.5863 H   0  0  0  0  0  0  0  0  0  0  0  0
    2.0501    0.9006   -1.8635 H   0  0  0  0  0  0  0  0  0  0  0  0
    3.1094    0.8087    0.6925 H   0  0  0  0  0  0  0  0  0  0  0  0
  1  2  1  0  0  0  0
  1  3  2  0  0  0  0
  1  5  1  0  0  0  0
  2  8  1  0  0  0  0
  4  8  2  0  0  0  0
  6  8  1  0  0  0  0
  7  8  1  0  0  0  0
  2  9  1  0  0  0  0
  5 10  1  0  0  0  0
  6 11  1  0  0  0  0
  7 12  1  0  0  0  0
M  END
$$$$
