eMolecules_8768_7815625
  -OEChem-05261901553D

 48 51  0     0  0  0  0  0  0999 V2000
    1.8963   -1.0287   -0.1120 C   0  0  0  0  0  0  0  0  0  0  0  0
    5.9115    0.5539    5.6236 C   0  0  0  0  0  0  0  0  0  0  0  0
   -3.1219    3.5506    5.7365 C   0  0  0  0  0  0  0  0  0  0  0  0
    3.4636    2.7709    8.4828 C   0  0  0  0  0  0  0  0  0  0  0  0
    2.8218   -1.7882    0.6038 C   0  0  0  0  0  0  0  0  0  0  0  0
    0.9247   -0.2927    0.5662 C   0  0  0  0  0  0  0  0  0  0  0  0
    5.2950    0.9624    4.4410 C   0  0  0  0  0  0  0  0  0  0  0  0
    5.2713   -0.3554    6.4658 C   0  0  0  0  0  0  0  0  0  0  0  0
   -2.2573    3.6410    6.8272 C   0  0  0  0  0  0  0  0  0  0  0  0
   -3.0004    2.4924    4.8359 C   0  0  0  0  0  0  0  0  0  0  0  0
    3.0338    3.1406    7.2084 C   0  0  0  0  0  0  0  0  0  0  0  0
    2.8928    1.6684    9.1189 C   0  0  0  0  0  0  0  0  0  0  0  0
    2.7755   -1.8118    1.9977 C   0  0  0  0  0  0  0  0  0  0  0  0
    0.8785   -0.3163    1.9601 C   0  0  0  0  0  0  0  0  0  0  0  0
    4.0383    0.4619    4.1006 C   0  0  0  0  0  0  0  0  0  0  0  0
    4.0147   -0.8559    6.1254 C   0  0  0  0  0  0  0  0  0  0  0  0
   -1.2709    2.6733    7.0174 C   0  0  0  0  0  0  0  0  0  0  0  0
   -2.0140    1.5246    5.0260 C   0  0  0  0  0  0  0  0  0  0  0  0
    2.0331    2.4079    6.5700 C   0  0  0  0  0  0  0  0  0  0  0  0
    1.8922    0.9358    8.4805 C   0  0  0  0  0  0  0  0  0  0  0  0
    1.8039   -1.0758    2.6759 C   0  0  0  0  0  0  0  0  0  0  0  0
    3.3981   -0.4473    4.9428 C   0  0  0  0  0  0  0  0  0  0  0  0
   -1.1493    1.6150    6.1168 C   0  0  0  0  0  0  0  0  0  0  0  0
    1.4623    1.3055    7.2061 C   0  0  0  0  0  0  0  0  0  0  0  0
    0.8075    0.2717    4.8093 N   0  0  0  0  0  0  0  0  0  0  0  0
    1.7438   -1.1064    4.4945 P   0  0  0  0  0  0  0  0  0  0  0  0
    0.1474    0.3424    6.3670 P   0  0  0  0  0  0  0  0  0  0  0  0
    1.9322   -1.0102   -1.1973 H   0  0  0  0  0  0  0  0  0  0  0  0
    6.8900    0.9435    5.8888 H   0  0  0  0  0  0  0  0  0  0  0  0
   -3.8900    4.3041    5.5883 H   0  0  0  0  0  0  0  0  0  0  0  0
    4.2427    3.3413    8.9799 H   0  0  0  0  0  0  0  0  0  0  0  0
    3.5789   -2.3604    0.0754 H   0  0  0  0  0  0  0  0  0  0  0  0
    0.2036    0.2978    0.0086 H   0  0  0  0  0  0  0  0  0  0  0  0
    5.7942    1.6695    3.7849 H   0  0  0  0  0  0  0  0  0  0  0  0
    5.7512   -0.6725    7.3871 H   0  0  0  0  0  0  0  0  0  0  0  0
   -2.3529    4.4646    7.5288 H   0  0  0  0  0  0  0  0  0  0  0  0
   -3.6732    2.4229    3.9861 H   0  0  0  0  0  0  0  0  0  0  0  0
    3.4791    3.9984    6.7130 H   0  0  0  0  0  0  0  0  0  0  0  0
    3.2270    1.3815   10.1117 H   0  0  0  0  0  0  0  0  0  0  0  0
    3.5076   -2.4100    2.5351 H   0  0  0  0  0  0  0  0  0  0  0  0
    0.1119    0.2643    2.4680 H   0  0  0  0  0  0  0  0  0  0  0  0
    3.5770    0.7934    3.1733 H   0  0  0  0  0  0  0  0  0  0  0  0
    3.5336   -1.5628    6.7973 H   0  0  0  0  0  0  0  0  0  0  0  0
   -0.6086    2.7631    7.8752 H   0  0  0  0  0  0  0  0  0  0  0  0
   -1.9367    0.7089    4.3110 H   0  0  0  0  0  0  0  0  0  0  0  0
    1.7144    2.7134    5.5762 H   0  0  0  0  0  0  0  0  0  0  0  0
    1.4606    0.0807    8.9954 H   0  0  0  0  0  0  0  0  0  0  0  0
    1.2002    1.1454    4.4654 H   0  0  0  0  0  0  0  0  0  0  0  0
  1  5  1  0  0  0  0
  1  6  2  0  0  0  0
  2  7  1  0  0  0  0
  2  8  2  0  0  0  0
  3  9  1  0  0  0  0
  3 10  2  0  0  0  0
  4 11  1  0  0  0  0
  4 12  2  0  0  0  0
  5 13  2  0  0  0  0
  6 14  1  0  0  0  0
  7 15  2  0  0  0  0
  8 16  1  0  0  0  0
  9 17  2  0  0  0  0
 10 18  1  0  0  0  0
 11 19  2  0  0  0  0
 12 20  1  0  0  0  0
 13 21  1  0  0  0  0
 14 21  2  0  0  0  0
 15 22  1  0  0  0  0
 16 22  2  0  0  0  0
 17 23  1  0  0  0  0
 18 23  2  0  0  0  0
 19 24  1  0  0  0  0
 20 24  2  0  0  0  0
 21 26  1  0  0  0  0
 22 26  1  0  0  0  0
 23 27  1  0  0  0  0
 24 27  1  0  0  0  0
 25 26  1  0  0  0  0
 25 27  1  0  0  0  0
  1 28  1  0  0  0  0
  2 29  1  0  0  0  0
  3 30  1  0  0  0  0
  4 31  1  0  0  0  0
  5 32  1  0  0  0  0
  6 33  1  0  0  0  0
  7 34  1  0  0  0  0
  8 35  1  0  0  0  0
  9 36  1  0  0  0  0
 10 37  1  0  0  0  0
 11 38  1  0  0  0  0
 12 39  1  0  0  0  0
 13 40  1  0  0  0  0
 14 41  1  0  0  0  0
 15 42  1  0  0  0  0
 16 43  1  0  0  0  0
 17 44  1  0  0  0  0
 18 45  1  0  0  0  0
 19 46  1  0  0  0  0
 20 47  1  0  0  0  0
 25 48  1  0  0  0  0
M  END
$$$$
