eMolecules_8963_8011946
  -OEChem-05261901553D

 20 20  0     0  0  0  0  0  0999 V2000
    5.2999   -2.2929    2.2157 C   0  0  0  0  0  0  0  0  0  0  0  0
    3.7340   -2.8962    4.0124 C   0  0  0  0  0  0  0  0  0  0  0  0
    1.8851   -1.0363   -0.1124 C   0  0  0  0  0  0  0  0  0  0  0  0
    0.8066   -0.4630    0.5610 C   0  0  0  0  0  0  0  0  0  0  0  0
    2.9210   -1.6309    0.6081 C   0  0  0  0  0  0  0  0  0  0  0  0
    0.7638   -0.4841    1.9551 C   0  0  0  0  0  0  0  0  0  0  0  0
    2.8783   -1.6520    2.0022 C   0  0  0  0  0  0  0  0  0  0  0  0
    1.7997   -1.0786    2.6757 C   0  0  0  0  0  0  0  0  0  0  0  0
    0.5990   -0.4790    4.6390 C   0  0  0  0  0  0  0  0  0  0  0  0
    6.3896   -2.3236    1.8171 N   0  0  0  0  0  0  0  0  0  0  0  0
    3.5778   -3.4068    5.0428 N   0  0  0  0  0  0  0  0  0  0  0  0
    3.9335   -2.2572    2.7187 N   0  0  0  0  0  0  0  0  0  0  0  0
    1.7391   -1.0885    4.0371 O   0  0  0  0  0  0  0  0  0  0  0  0
    1.9187   -1.0191   -1.1978 H   0  0  0  0  0  0  0  0  0  0  0  0
   -0.0000   -0.0005   -0.0001 H   0  0  0  0  0  0  0  0  0  0  0  0
    3.7564   -2.0750    0.0725 H   0  0  0  0  0  0  0  0  0  0  0  0
   -0.0796   -0.0362    2.4738 H   0  0  0  0  0  0  0  0  0  0  0  0
    0.6754   -0.5558    5.7264 H   0  0  0  0  0  0  0  0  0  0  0  0
   -0.3087   -0.9783    4.2907 H   0  0  0  0  0  0  0  0  0  0  0  0
    0.5661    0.5746    4.3518 H   0  0  0  0  0  0  0  0  0  0  0  0
  1 10  3  0  0  0  0
  1 12  1  0  0  0  0
  2 11  3  0  0  0  0
  2 12  1  0  0  0  0
  3  4  1  0  0  0  0
  3  5  2  0  0  0  0
  4  6  2  0  0  0  0
  5  7  1  0  0  0  0
  6  8  1  0  0  0  0
  7  8  2  0  0  0  0
  7 12  1  0  0  0  0
  8 13  1  0  0  0  0
  9 13  1  0  0  0  0
  3 14  1  0  0  0  0
  4 15  1  0  0  0  0
  5 16  1  0  0  0  0
  6 17  1  0  0  0  0
  9 18  1  0  0  0  0
  9 19  1  0  0  0  0
  9 20  1  0  0  0  0
M  END
$$$$
