eMolecules_8922_7970725
  -OEChem-05261901553D

 20 19  0     1  0  0  0  0  0999 V2000
    0.1263    1.3081   -2.4101 C   0  0  0  0  0  0  0  0  0  0  0  0
    0.8112   -1.9871    0.4627 C   0  0  0  0  0  0  0  0  0  0  0  0
   -0.1293    0.1063   -1.5414 C   0  0  0  0  0  0  0  0  0  0  0  0
    0.2505    0.4049   -0.0901 C   0  0  0  0  0  0  0  0  0  0  0  0
   -0.0093   -0.7678    0.8698 C   0  0  2  0  0  0  0  0  0  0  0  0
    0.3164   -0.4341    2.2519 N   0  0  0  0  0  0  0  0  0  0  0  0
    0.6250    2.3552   -2.0229 O   0  0  0  0  0  0  0  0  0  0  0  0
    0.3273   -3.0709    0.1564 O   0  0  0  0  0  0  0  0  0  0  0  0
   -0.2457    1.0716   -3.6920 O   0  0  0  0  0  0  0  0  0  0  0  0
    2.1516   -1.7685    0.4628 O   0  0  0  0  0  0  0  0  0  0  0  0
   -1.3778   -1.1431    0.7478 O   0  0  0  0  0  0  0  0  0  0  0  0
    0.4316   -0.7454   -1.9425 H   0  0  0  0  0  0  0  0  0  0  0  0
   -1.1915   -0.1480   -1.6314 H   0  0  0  0  0  0  0  0  0  0  0  0
    1.3187    0.6614   -0.0581 H   0  0  0  0  0  0  0  0  0  0  0  0
   -0.2807    1.3062    0.2423 H   0  0  0  0  0  0  0  0  0  0  0  0
    0.0954   -1.2180    2.8637 H   0  0  0  0  0  0  0  0  0  0  0  0
    1.3113   -0.2462    2.3563 H   0  0  0  0  0  0  0  0  0  0  0  0
   -0.6254    0.1740   -3.8035 H   0  0  0  0  0  0  0  0  0  0  0  0
    2.4342   -0.8672    0.7235 H   0  0  0  0  0  0  0  0  0  0  0  0
   -1.5217   -1.8960    1.3460 H   0  0  0  0  0  0  0  0  0  0  0  0
  1  3  1  0  0  0  0
  1  7  2  0  0  0  0
  1  9  1  0  0  0  0
  2  5  1  0  0  0  0
  2  8  2  0  0  0  0
  2 10  1  0  0  0  0
  3  4  1  0  0  0  0
  4  5  1  0  0  0  0
  5  6  1  0  0  0  0
  5 11  1  0  0  0  0
  3 12  1  0  0  0  0
  3 13  1  0  0  0  0
  4 14  1  0  0  0  0
  4 15  1  0  0  0  0
  6 16  1  0  0  0  0
  6 17  1  0  0  0  0
  9 18  1  0  0  0  0
 10 19  1  0  0  0  0
 11 20  1  0  0  0  0
M  END
$$$$
