eMolecules_1005_5701
  -OEChem-05261901553D

 12 11  0     0  0  0  0  0  0999 V2000
    0.5059    2.0635    2.4332 C   0  0  0  0  0  0  0  0  0  0  0  0
   -0.1051    1.0718    0.1953 C   0  0  0  0  0  0  0  0  0  0  0  0
   -1.4618    0.5235    2.1651 C   0  0  0  0  0  0  0  0  0  0  0  0
   -0.3205    1.2654    1.6308 N   0  0  0  0  0  0  0  0  0  0  0  0
    1.8605    2.9325    1.9487 S   0  0  0  0  0  0  0  0  0  0  0  0
    0.1905    2.2392    4.1286 Cl  0  0  0  0  0  0  0  0  0  0  0  0
    0.5433    0.2083    0.0257 H   0  0  0  0  0  0  0  0  0  0  0  0
    0.3673    1.9573   -0.2388 H   0  0  0  0  0  0  0  0  0  0  0  0
   -1.0592    0.9002   -0.3103 H   0  0  0  0  0  0  0  0  0  0  0  0
   -2.3631    1.1407    2.1251 H   0  0  0  0  0  0  0  0  0  0  0  0
   -1.2752    0.2401    3.2045 H   0  0  0  0  0  0  0  0  0  0  0  0
   -1.6304   -0.3841    1.5792 H   0  0  0  0  0  0  0  0  0  0  0  0
  1  4  1  0  0  0  0
  1  5  2  0  0  0  0
  1  6  1  0  0  0  0
  2  4  1  0  0  0  0
  3  4  1  0  0  0  0
  2  7  1  0  0  0  0
  2  8  1  0  0  0  0
  2  9  1  0  0  0  0
  3 10  1  0  0  0  0
  3 11  1  0  0  0  0
  3 12  1  0  0  0  0
M  END
$$$$
