eMolecules_4663_3682784
  -OEChem-05261901553D

 51 53  0     0  0  0  0  0  0999 V2000
    7.6716    6.9735  -10.1905 C   0  0  0  0  0  0  0  0  0  0  0  0
    4.9725    6.5062   -3.5559 C   0  0  0  0  0  0  0  0  0  0  0  0
    6.8583    7.8420   -9.4626 C   0  0  0  0  0  0  0  0  0  0  0  0
    7.3758    5.6110  -10.2318 C   0  0  0  0  0  0  0  0  0  0  0  0
    5.8340    5.6668   -4.2622 C   0  0  0  0  0  0  0  0  0  0  0  0
    3.8164    6.9925   -4.1664 C   0  0  0  0  0  0  0  0  0  0  0  0
    0.3362    3.4644   -5.5108 C   0  0  0  0  0  0  0  0  0  0  0  0
    1.7512    1.8344   -4.4254 C   0  0  0  0  0  0  0  0  0  0  0  0
    5.7493    7.3480   -8.7758 C   0  0  0  0  0  0  0  0  0  0  0  0
    6.2668    5.1170   -9.5450 C   0  0  0  0  0  0  0  0  0  0  0  0
    5.5394    5.3137   -5.5791 C   0  0  0  0  0  0  0  0  0  0  0  0
    3.5218    6.6393   -5.4833 C   0  0  0  0  0  0  0  0  0  0  0  0
    1.1366    3.3998   -6.6513 C   0  0  0  0  0  0  0  0  0  0  0  0
    2.5515    1.7697   -5.5660 C   0  0  0  0  0  0  0  0  0  0  0  0
    0.6436    2.6818   -4.3978 C   0  0  0  0  0  0  0  0  0  0  0  0
    5.4535    5.9854   -8.8170 C   0  0  0  0  0  0  0  0  0  0  0  0
    4.3833    5.7999   -6.1896 C   0  0  0  0  0  0  0  0  0  0  0  0
    2.2442    2.5524   -6.6790 C   0  0  0  0  0  0  0  0  0  0  0  0
   -0.0764    4.9090    0.0570 C   0  0  0  0  0  0  0  0  0  0  0  0
   -0.2210    2.7521   -3.1643 C   0  0  0  0  0  0  0  0  0  0  0  0
   -0.5862    3.8700   -0.9289 C   0  0  0  0  0  0  0  0  0  0  0  0
    0.2727    3.8278   -2.1928 C   0  0  0  0  0  0  0  0  0  0  0  0
    4.4213    3.6757   -7.8322 N   0  0  0  0  0  0  0  0  0  0  0  0
    2.4426    2.8408   -9.2673 O   0  0  0  0  0  0  0  0  0  0  0  0
    3.9098    1.1723   -8.0945 O   0  0  0  0  0  0  0  0  0  0  0  0
    3.9971    5.3368   -7.9155 P   0  0  0  0  0  0  0  0  0  0  0  0
    3.2448    2.4696   -8.1072 S   0  0  0  0  0  0  0  0  0  0  0  0
    8.5351    7.3581  -10.7253 H   0  0  0  0  0  0  0  0  0  0  0  0
    5.2017    6.7813   -2.5305 H   0  0  0  0  0  0  0  0  0  0  0  0
    7.0883    8.9031   -9.4315 H   0  0  0  0  0  0  0  0  0  0  0  0
    8.0099    4.9348  -10.7978 H   0  0  0  0  0  0  0  0  0  0  0  0
    6.7335    5.2876   -3.7861 H   0  0  0  0  0  0  0  0  0  0  0  0
    3.1464    7.6469   -3.6165 H   0  0  0  0  0  0  0  0  0  0  0  0
   -0.5245    4.1278   -5.4983 H   0  0  0  0  0  0  0  0  0  0  0  0
    1.9985    1.2212   -3.5628 H   0  0  0  0  0  0  0  0  0  0  0  0
    5.1286    8.0434   -8.2157 H   0  0  0  0  0  0  0  0  0  0  0  0
    6.0556    4.0511   -9.5902 H   0  0  0  0  0  0  0  0  0  0  0  0
    6.2246    4.6572   -6.1102 H   0  0  0  0  0  0  0  0  0  0  0  0
    2.6157    7.0308   -5.9397 H   0  0  0  0  0  0  0  0  0  0  0  0
    0.8886    4.0142   -7.5128 H   0  0  0  0  0  0  0  0  0  0  0  0
    3.4123    1.1063   -5.5766 H   0  0  0  0  0  0  0  0  0  0  0  0
    0.9608    4.7045    0.3411 H   0  0  0  0  0  0  0  0  0  0  0  0
   -0.6863    4.9197    0.9660 H   0  0  0  0  0  0  0  0  0  0  0  0
   -0.1154    5.9073   -0.3902 H   0  0  0  0  0  0  0  0  0  0  0  0
   -1.2601    2.9590   -3.4514 H   0  0  0  0  0  0  0  0  0  0  0  0
   -0.2320    1.7755   -2.6632 H   0  0  0  0  0  0  0  0  0  0  0  0
   -1.6245    4.1034   -1.1920 H   0  0  0  0  0  0  0  0  0  0  0  0
   -0.5867    2.8860   -0.4458 H   0  0  0  0  0  0  0  0  0  0  0  0
    0.2528    4.8098   -2.6825 H   0  0  0  0  0  0  0  0  0  0  0  0
    1.3176    3.6326   -1.9201 H   0  0  0  0  0  0  0  0  0  0  0  0
    5.2919    3.4244   -7.3482 H   0  0  0  0  0  0  0  0  0  0  0  0
  1  3  1  0  0  0  0
  1  4  2  0  0  0  0
  2  5  1  0  0  0  0
  2  6  2  0  0  0  0
  3  9  2  0  0  0  0
  4 10  1  0  0  0  0
  5 11  2  0  0  0  0
  6 12  1  0  0  0  0
  7 13  2  0  0  0  0
  7 15  1  0  0  0  0
  8 14  1  0  0  0  0
  8 15  2  0  0  0  0
  9 16  1  0  0  0  0
 10 16  2  0  0  0  0
 11 17  1  0  0  0  0
 12 17  2  0  0  0  0
 13 18  1  0  0  0  0
 14 18  2  0  0  0  0
 15 20  1  0  0  0  0
 16 26  1  0  0  0  0
 17 26  1  0  0  0  0
 18 27  1  0  0  0  0
 19 21  1  0  0  0  0
 20 22  1  0  0  0  0
 21 22  1  0  0  0  0
 23 26  1  0  0  0  0
 23 27  1  0  0  0  0
 24 27  2  0  0  0  0
 25 27  2  0  0  0  0
  1 28  1  0  0  0  0
  2 29  1  0  0  0  0
  3 30  1  0  0  0  0
  4 31  1  0  0  0  0
  5 32  1  0  0  0  0
  6 33  1  0  0  0  0
  7 34  1  0  0  0  0
  8 35  1  0  0  0  0
  9 36  1  0  0  0  0
 10 37  1  0  0  0  0
 11 38  1  0  0  0  0
 12 39  1  0  0  0  0
 13 40  1  0  0  0  0
 14 41  1  0  0  0  0
 19 42  1  0  0  0  0
 19 43  1  0  0  0  0
 19 44  1  0  0  0  0
 20 45  1  0  0  0  0
 20 46  1  0  0  0  0
 21 47  1  0  0  0  0
 21 48  1  0  0  0  0
 22 49  1  0  0  0  0
 22 50  1  0  0  0  0
 23 51  1  0  0  0  0
M  END
$$$$
