eMolecules_1104_106965
  -OEChem-05261901553D

 17 17  0     0  0  0  0  0  0999 V2000
    1.8851   -1.0363   -0.1124 C   0  0  0  0  0  0  0  0  0  0  0  0
    0.8066   -0.4630    0.5610 C   0  0  0  0  0  0  0  0  0  0  0  0
    2.9210   -1.6309    0.6081 C   0  0  0  0  0  0  0  0  0  0  0  0
    0.7638   -0.4841    1.9551 C   0  0  0  0  0  0  0  0  0  0  0  0
    2.8783   -1.6520    2.0022 C   0  0  0  0  0  0  0  0  0  0  0  0
    1.7997   -1.0786    2.6757 C   0  0  0  0  0  0  0  0  0  0  0  0
    3.0054   -0.0018    4.8503 N   0  0  0  0  0  0  0  0  0  0  0  0
    0.4633   -0.5351    4.8145 O   0  0  0  0  0  0  0  0  0  0  0  0
    2.1134   -2.4337    4.8888 O   0  0  0  0  0  0  0  0  0  0  0  0
    1.7474   -1.1019    4.4208 S   0  0  0  0  0  0  0  0  0  0  0  0
    2.7872    1.6034    4.2552 Cl  0  0  0  0  0  0  0  0  0  0  0  0
    3.4554   -0.0224    6.5170 Cl  0  0  0  0  0  0  0  0  0  0  0  0
    1.9194   -1.0196   -1.1979 H   0  0  0  0  0  0  0  0  0  0  0  0
    0.0004    0.0009    0.0004 H   0  0  0  0  0  0  0  0  0  0  0  0
    3.7609   -2.0765    0.0835 H   0  0  0  0  0  0  0  0  0  0  0  0
   -0.0807   -0.0338    2.4698 H   0  0  0  0  0  0  0  0  0  0  0  0
    3.6912   -2.1166    2.5535 H   0  0  0  0  0  0  0  0  0  0  0  0
  1  2  1  0  0  0  0
  1  3  2  0  0  0  0
  2  4  2  0  0  0  0
  3  5  1  0  0  0  0
  4  6  1  0  0  0  0
  5  6  2  0  0  0  0
  6 10  1  0  0  0  0
  7 10  1  0  0  0  0
  7 11  1  0  0  0  0
  7 12  1  0  0  0  0
  8 10  2  0  0  0  0
  9 10  2  0  0  0  0
  1 13  1  0  0  0  0
  2 14  1  0  0  0  0
  3 15  1  0  0  0  0
  4 16  1  0  0  0  0
  5 17  1  0  0  0  0
M  END
$$$$
