eMolecules_5731_4755011
  -OEChem-05261901553D

 13 13  0     0  0  0  0  0  0999 V2000
   -0.0089    0.7555   -0.1928 C   0  0  0  0  0  0  0  0  0  0  0  0
   -0.9433    0.1923   -1.3073 C   0  0  0  0  0  0  0  0  0  0  0  0
   -0.6738   -1.1825   -0.6641 C   0  0  0  0  0  0  0  0  0  0  0  0
   -0.0257   -0.4902    0.4768 N   0  0  0  0  0  0  0  0  0  0  0  0
    0.5796    1.7778    0.0761 O   0  0  0  0  0  0  0  0  0  0  0  0
    0.8102   -2.4528    1.9276 O   0  0  0  0  0  0  0  0  0  0  0  0
    1.2495   -0.0753    2.6795 O   0  0  0  0  0  0  0  0  0  0  0  0
    1.0722   -1.0530    1.6113 S   0  0  0  0  0  0  0  0  0  0  0  0
    2.8997   -1.0893    0.6705 Cl  0  0  0  0  0  0  0  0  0  0  0  0
   -1.9728    0.5521   -1.2374 H   0  0  0  0  0  0  0  0  0  0  0  0
   -0.5611    0.3144   -2.3227 H   0  0  0  0  0  0  0  0  0  0  0  0
   -1.5604   -1.7504   -0.3726 H   0  0  0  0  0  0  0  0  0  0  0  0
    0.0209   -1.8202   -1.2187 H   0  0  0  0  0  0  0  0  0  0  0  0
  1  2  1  0  0  0  0
  1  4  1  0  0  0  0
  1  5  2  0  0  0  0
  2  3  1  0  0  0  0
  3  4  1  0  0  0  0
  4  8  1  0  0  0  0
  6  8  2  0  0  0  0
  7  8  2  0  0  0  0
  8  9  1  0  0  0  0
  2 10  1  0  0  0  0
  2 11  1  0  0  0  0
  3 12  1  0  0  0  0
  3 13  1  0  0  0  0
M  END
$$$$
