eMolecules_2014_1018809
  -OEChem-05261901553D

 21 21  0     0  0  0  0  0  0999 V2000
    1.8851   -1.0363   -0.1124 C   0  0  0  0  0  0  0  0  0  0  0  0
    0.8066   -0.4630    0.5610 C   0  0  0  0  0  0  0  0  0  0  0  0
    2.9210   -1.6309    0.6081 C   0  0  0  0  0  0  0  0  0  0  0  0
    0.7638   -0.4841    1.9551 C   0  0  0  0  0  0  0  0  0  0  0  0
    2.8783   -1.6520    2.0022 C   0  0  0  0  0  0  0  0  0  0  0  0
    1.7997   -1.0786    2.6757 C   0  0  0  0  0  0  0  0  0  0  0  0
   -0.0498    0.2716    4.9318 C   0  0  0  0  0  0  0  0  0  0  0  0
    0.4078   -1.1357    4.6991 C   0  0  0  0  0  0  0  0  0  0  0  0
    2.9114   -1.0871    4.8294 N   0  0  0  0  0  0  0  0  0  0  0  0
    1.7568   -1.1003    4.0852 N   0  0  0  0  0  0  0  0  0  0  0  0
    0.5635    1.2905    4.6507 O   0  0  0  0  0  0  0  0  0  0  0  0
    2.7558   -1.1084    6.0545 O   0  0  0  0  0  0  0  0  0  0  0  0
   -1.2765    0.2692    5.5148 O   0  0  0  0  0  0  0  0  0  0  0  0
    1.9184   -1.0196   -1.1980 H   0  0  0  0  0  0  0  0  0  0  0  0
    0.0003   -0.0001   -0.0001 H   0  0  0  0  0  0  0  0  0  0  0  0
    3.7609   -2.0773    0.0835 H   0  0  0  0  0  0  0  0  0  0  0  0
   -0.0810   -0.0345    2.4703 H   0  0  0  0  0  0  0  0  0  0  0  0
    3.6911   -2.1183    2.5532 H   0  0  0  0  0  0  0  0  0  0  0  0
    0.4657   -1.6658    5.6534 H   0  0  0  0  0  0  0  0  0  0  0  0
   -0.2813   -1.6431    4.0190 H   0  0  0  0  0  0  0  0  0  0  0  0
   -1.6088   -0.6417    5.6634 H   0  0  0  0  0  0  0  0  0  0  0  0
  1  2  1  0  0  0  0
  1  3  2  0  0  0  0
  2  4  2  0  0  0  0
  3  5  1  0  0  0  0
  4  6  1  0  0  0  0
  5  6  2  0  0  0  0
  6 10  1  0  0  0  0
  7  8  1  0  0  0  0
  7 11  2  0  0  0  0
  7 13  1  0  0  0  0
  8 10  1  0  0  0  0
  9 10  1  0  0  0  0
  9 12  2  0  0  0  0
  1 14  1  0  0  0  0
  2 15  1  0  0  0  0
  3 16  1  0  0  0  0
  4 17  1  0  0  0  0
  5 18  1  0  0  0  0
  8 19  1  0  0  0  0
  8 20  1  0  0  0  0
 13 21  1  0  0  0  0
M  END
$$$$
