eMolecules_7704_6746695
  -OEChem-05261901553D

 16 16  0     0  0  0  0  0  0999 V2000
    3.9370   -1.5565    3.6569 C   0  0  0  0  0  0  0  0  0  0  0  0
    3.1350   -2.6753    3.7419 C   0  0  0  0  0  0  0  0  0  0  0  0
    2.3835   -0.9578    2.2293 C   0  0  0  0  0  0  0  0  0  0  0  0
    0.4297   -0.7056    0.7196 C   0  0  0  0  0  0  0  0  0  0  0  0
    2.1397    1.1106    0.8793 C   0  0  0  0  0  0  0  0  0  0  0  0
    3.5079   -0.5708    2.7898 N   0  0  0  0  0  0  0  0  0  0  0  0
    1.6711   -0.2050    1.2958 N   0  0  0  0  0  0  0  0  0  0  0  0
    1.7850   -2.4959    2.6995 S   0  0  0  0  0  0  0  0  0  0  0  0
    4.8538   -1.4082    4.2113 H   0  0  0  0  0  0  0  0  0  0  0  0
    3.2736   -3.5598    4.3472 H   0  0  0  0  0  0  0  0  0  0  0  0
    0.0228    0.0227    0.0133 H   0  0  0  0  0  0  0  0  0  0  0  0
   -0.3081   -0.8826    1.5069 H   0  0  0  0  0  0  0  0  0  0  0  0
    0.6104   -1.6454    0.1909 H   0  0  0  0  0  0  0  0  0  0  0  0
    1.4514    1.5401    0.1468 H   0  0  0  0  0  0  0  0  0  0  0  0
    3.1318    1.0326    0.4264 H   0  0  0  0  0  0  0  0  0  0  0  0
    2.1997    1.7808    1.7411 H   0  0  0  0  0  0  0  0  0  0  0  0
  1  2  2  0  0  0  0
  1  6  1  0  0  0  0
  2  8  1  0  0  0  0
  3  6  2  0  0  0  0
  3  7  1  0  0  0  0
  3  8  1  0  0  0  0
  4  7  1  0  0  0  0
  5  7  1  0  0  0  0
  1  9  1  0  0  0  0
  2 10  1  0  0  0  0
  4 11  1  0  0  0  0
  4 12  1  0  0  0  0
  4 13  1  0  0  0  0
  5 14  1  0  0  0  0
  5 15  1  0  0  0  0
  5 16  1  0  0  0  0
M  END
$$$$
