eMolecules_1009_10013
  -OEChem-05261901553D

 24 24  0     0  0  0  0  0  0999 V2000
   -0.1947   -5.7588    2.5227 C   0  0  0  0  0  0  0  0  0  0  0  0
    1.6206   -4.5442    3.5556 C   0  0  0  0  0  0  0  0  0  0  0  0
   -0.8310   -4.5540    2.2242 C   0  0  0  0  0  0  0  0  0  0  0  0
    0.9843   -3.3394    3.2569 C   0  0  0  0  0  0  0  0  0  0  0  0
    1.0311   -5.7539    3.1885 C   0  0  0  0  0  0  0  0  0  0  0  0
   -0.2415   -3.3443    2.5912 C   0  0  0  0  0  0  0  0  0  0  0  0
    1.7113   -7.0419    3.5086 C   0  0  0  0  0  0  0  0  0  0  0  0
   -2.4618   -2.1525    4.5421 C   0  0  0  0  0  0  0  0  0  0  0  0
   -1.9149    0.1560    3.7871 N   0  0  0  0  0  0  0  0  0  0  0  0
   -1.5355   -1.2698    3.7793 N   0  0  0  0  0  0  0  0  0  0  0  0
   -1.9483    0.6174    4.9331 O   0  0  0  0  0  0  0  0  0  0  0  0
   -2.2149   -2.1656    1.4230 O   0  0  0  0  0  0  0  0  0  0  0  0
   -0.0524   -0.9018    1.6822 O   0  0  0  0  0  0  0  0  0  0  0  0
   -1.0367   -1.8361    2.2156 S   0  0  0  0  0  0  0  0  0  0  0  0
   -0.6616   -6.6964    2.2332 H   0  0  0  0  0  0  0  0  0  0  0  0
    2.5752   -4.5307    4.0749 H   0  0  0  0  0  0  0  0  0  0  0  0
   -1.7860   -4.5691    1.7056 H   0  0  0  0  0  0  0  0  0  0  0  0
    1.4523   -2.4026    3.5479 H   0  0  0  0  0  0  0  0  0  0  0  0
    2.3759   -7.3373    2.6875 H   0  0  0  0  0  0  0  0  0  0  0  0
    2.3077   -6.9603    4.4266 H   0  0  0  0  0  0  0  0  0  0  0  0
    0.9831   -7.8468    3.6735 H   0  0  0  0  0  0  0  0  0  0  0  0
   -3.2559   -2.5196    3.8867 H   0  0  0  0  0  0  0  0  0  0  0  0
   -2.9155   -1.5995    5.3691 H   0  0  0  0  0  0  0  0  0  0  0  0
   -1.9179   -3.0088    4.9498 H   0  0  0  0  0  0  0  0  0  0  0  0
  1  3  2  0  0  0  0
  1  5  1  0  0  0  0
  2  4  1  0  0  0  0
  2  5  2  0  0  0  0
  3  6  1  0  0  0  0
  4  6  2  0  0  0  0
  5  7  1  0  0  0  0
  6 14  1  0  0  0  0
  8 10  1  0  0  0  0
  9 10  1  0  0  0  0
  9 11  2  0  0  0  0
 10 14  1  0  0  0  0
 12 14  2  0  0  0  0
 13 14  2  0  0  0  0
  1 15  1  0  0  0  0
  2 16  1  0  0  0  0
  3 17  1  0  0  0  0
  4 18  1  0  0  0  0
  7 19  1  0  0  0  0
  7 20  1  0  0  0  0
  7 21  1  0  0  0  0
  8 22  1  0  0  0  0
  8 23  1  0  0  0  0
  8 24  1  0  0  0  0
M  END
$$$$
