eMolecules_8686_7731759
  -OEChem-05261901553D

 24 25  0     0  0  0  0  0  0999 V2000
   -2.0021   -3.5884   -1.8846 C   0  0  0  0  0  0  0  0  0  0  0  0
   -1.1286   -2.5919   -1.4494 C   0  0  0  0  0  0  0  0  0  0  0  0
   -3.3212   -3.2681   -2.2057 C   0  0  0  0  0  0  0  0  0  0  0  0
   -2.8932   -0.9547   -1.6562 C   0  0  0  0  0  0  0  0  0  0  0  0
   -1.5741   -1.2750   -1.3352 C   0  0  0  0  0  0  0  0  0  0  0  0
   -3.7668   -1.9513   -2.0915 C   0  0  0  0  0  0  0  0  0  0  0  0
    1.4854    0.0817   -0.2486 C   0  0  0  0  0  0  0  0  0  0  0  0
    0.8156    0.6856    0.9517 C   0  0  0  0  0  0  0  0  0  0  0  0
    2.9798    0.0679   -0.3276 C   0  0  0  0  0  0  0  0  0  0  0  0
    0.7573   -0.4188   -1.1974 N   0  0  0  0  0  0  0  0  0  0  0  0
   -0.6712   -0.2459   -0.8855 N   0  0  0  0  0  0  0  0  0  0  0  0
   -1.2456   -0.7780    1.6071 O   0  0  0  0  0  0  0  0  0  0  0  0
   -1.6468    1.5615    0.7075 O   0  0  0  0  0  0  0  0  0  0  0  0
   -0.9002    0.3210    0.7279 S   0  0  0  0  0  0  0  0  0  0  0  0
   -5.5542   -1.5178   -2.5267 Br  0  0  0  0  0  0  0  0  0  0  0  0
   -1.6552   -4.6138   -1.9736 H   0  0  0  0  0  0  0  0  0  0  0  0
   -0.1027   -2.8525   -1.2018 H   0  0  0  0  0  0  0  0  0  0  0  0
   -3.9886   -4.0572   -2.5433 H   0  0  0  0  0  0  0  0  0  0  0  0
   -3.2346    0.0745   -1.5651 H   0  0  0  0  0  0  0  0  0  0  0  0
    1.1777    0.2229    1.8709 H   0  0  0  0  0  0  0  0  0  0  0  0
    0.9680    1.7663    0.9576 H   0  0  0  0  0  0  0  0  0  0  0  0
    3.3618   -0.8475    0.1211 H   0  0  0  0  0  0  0  0  0  0  0  0
    3.3831    0.9280    0.2050 H   0  0  0  0  0  0  0  0  0  0  0  0
    3.2920    0.1183   -1.3697 H   0  0  0  0  0  0  0  0  0  0  0  0
  1  2  2  0  0  0  0
  1  3  1  0  0  0  0
  2  5  1  0  0  0  0
  3  6  2  0  0  0  0
  4  5  2  0  0  0  0
  4  6  1  0  0  0  0
  5 11  1  0  0  0  0
  6 15  1  0  0  0  0
  7  8  1  0  0  0  0
  7  9  1  0  0  0  0
  7 10  2  0  0  0  0
  8 14  1  0  0  0  0
 10 11  1  0  0  0  0
 11 14  1  0  0  0  0
 12 14  2  0  0  0  0
 13 14  2  0  0  0  0
  1 16  1  0  0  0  0
  2 17  1  0  0  0  0
  3 18  1  0  0  0  0
  4 19  1  0  0  0  0
  8 20  1  0  0  0  0
  8 21  1  0  0  0  0
  9 22  1  0  0  0  0
  9 23  1  0  0  0  0
  9 24  1  0  0  0  0
M  END
$$$$
