eMolecules_1052_54457
  -OEChem-05261901553D

 18 17  0     0  0  0  0  0  0999 V2000
    2.6486   -1.8295    4.8049 C   0  0  0  0  0  0  0  0  0  0  0  0
   -0.0095   -0.6551    0.8768 C   0  0  0  0  0  0  0  0  0  0  0  0
    1.2444   -0.4434    1.7060 C   0  0  0  0  0  0  0  0  0  0  0  0
    1.2749   -1.3494    2.9273 C   0  0  0  0  0  0  0  0  0  0  0  0
    3.8391   -1.4623    5.3995 N   0  0  0  0  0  0  0  0  0  0  0  0
    4.3179   -2.0389    6.5926 N   0  3  0  0  0  0  0  0  0  0  0  0
    3.6304   -2.9135    7.1217 O   0  5  0  0  0  0  0  0  0  0  0  0
    1.8523   -2.6752    5.1975 O   0  0  0  0  0  0  0  0  0  0  0  0
    5.3987   -1.5729    6.9567 O   0  0  0  0  0  0  0  0  0  0  0  0
    2.4629   -1.0899    3.6622 O   0  0  0  0  0  0  0  0  0  0  0  0
   -0.0920   -1.6965    0.5497 H   0  0  0  0  0  0  0  0  0  0  0  0
   -0.8996   -0.4128    1.4659 H   0  0  0  0  0  0  0  0  0  0  0  0
   -0.0053   -0.0150   -0.0111 H   0  0  0  0  0  0  0  0  0  0  0  0
    1.3083    0.6043    2.0234 H   0  0  0  0  0  0  0  0  0  0  0  0
    2.1333   -0.6260    1.0902 H   0  0  0  0  0  0  0  0  0  0  0  0
    0.4147   -1.1588    3.5770 H   0  0  0  0  0  0  0  0  0  0  0  0
    1.2712   -2.4035    2.6320 H   0  0  0  0  0  0  0  0  0  0  0  0
    4.4316   -0.7461    4.9927 H   0  0  0  0  0  0  0  0  0  0  0  0
  1  5  1  0  0  0  0
  1  8  2  0  0  0  0
  1 10  1  0  0  0  0
  2  3  1  0  0  0  0
  3  4  1  0  0  0  0
  4 10  1  0  0  0  0
  5  6  1  0  0  0  0
  6  7  1  0  0  0  0
  6  9  2  0  0  0  0
  2 11  1  0  0  0  0
  2 12  1  0  0  0  0
  2 13  1  0  0  0  0
  3 14  1  0  0  0  0
  3 15  1  0  0  0  0
  4 16  1  0  0  0  0
  4 17  1  0  0  0  0
  5 18  1  0  0  0  0
M  CHG  2   6   1   7  -1
M  END
$$$$
