eMolecules_7268_6306083
  -OEChem-05261901543D

 13 13  0     0  0  0  0  0  0999 V2000
   -0.2093   -1.0241   -0.2695 C   0  0  0  0  0  0  0  0  0  0  0  0
    0.1854   -3.1250   -0.3490 C   0  0  0  0  0  0  0  0  0  0  0  0
   -1.2151   -1.6725   -0.9422 C   0  0  0  0  0  0  0  0  0  0  0  0
   -2.4251   -1.1080   -1.5552 C   0  0  0  0  0  0  0  0  0  0  0  0
   -0.9564   -3.0185   -0.9902 N   0  0  0  0  0  0  0  0  0  0  0  0
   -3.6503   -1.6510   -1.0029 N   0  0  0  0  0  0  0  0  0  0  0  0
    0.7040   -1.9569    0.1194 O   0  0  0  0  0  0  0  0  0  0  0  0
   -5.0897   -0.9079   -1.7044 Cl  0  0  0  0  0  0  0  0  0  0  0  0
    0.0024   -0.0006    0.0006 H   0  0  0  0  0  0  0  0  0  0  0  0
    0.7571   -4.0193   -0.1513 H   0  0  0  0  0  0  0  0  0  0  0  0
   -2.4845   -0.0096   -1.4290 H   0  0  0  0  0  0  0  0  0  0  0  0
   -2.4711   -1.2856   -2.6469 H   0  0  0  0  0  0  0  0  0  0  0  0
   -3.6722   -2.6610   -1.1504 H   0  0  0  0  0  0  0  0  0  0  0  0
  1  3  2  0  0  0  0
  1  7  1  0  0  0  0
  2  5  2  0  0  0  0
  2  7  1  0  0  0  0
  3  4  1  0  0  0  0
  3  5  1  0  0  0  0
  4  6  1  0  0  0  0
  6  8  1  0  0  0  0
  1  9  1  0  0  0  0
  2 10  1  0  0  0  0
  4 11  1  0  0  0  0
  4 12  1  0  0  0  0
  6 13  1  0  0  0  0
M  END
$$$$
