eMolecules_2032_1036836
  -OEChem-05261901553D

 27 27  0     0  0  0  0  0  0999 V2000
    0.4111   -0.3515    1.2812 C   0  0  0  0  0  0  0  0  0  0  0  0
   -0.4184    0.8835   -0.4898 C   0  0  0  0  0  0  0  0  0  0  0  0
    1.0036    1.2887   -0.1969 C   0  0  0  0  0  0  0  0  0  0  0  0
   -0.7437   -3.4854   -2.6588 C   0  0  0  0  0  0  0  0  0  0  0  0
   -5.3858    0.4870   -0.0882 C   0  0  0  0  0  0  0  0  0  0  0  0
   -0.7894   -3.0043   -1.2242 C   0  0  0  0  0  0  0  0  0  0  0  0
   -4.4490   -0.6277    0.3261 C   0  0  0  0  0  0  0  0  0  0  0  0
   -0.6108   -0.2584    0.3497 N   0  0  0  0  0  0  0  0  0  0  0  0
    0.5307   -1.1518    2.2000 O   0  0  0  0  0  0  0  0  0  0  0  0
    1.3348    0.6364    1.0379 O   0  0  0  0  0  0  0  0  0  0  0  0
   -1.7685   -1.9812   -1.1102 O   0  0  0  0  0  0  0  0  0  0  0  0
   -3.1170   -0.2598   -0.0046 O   0  0  0  0  0  0  0  0  0  0  0  0
   -1.9627   -1.3374    0.3665 P   0  0  0  0  0  0  0  0  0  0  0  0
   -1.1238    1.6640   -0.1842 H   0  0  0  0  0  0  0  0  0  0  0  0
   -0.5769    0.6437   -1.5454 H   0  0  0  0  0  0  0  0  0  0  0  0
    1.7010    0.9415   -0.9660 H   0  0  0  0  0  0  0  0  0  0  0  0
    1.1087    2.3704   -0.0743 H   0  0  0  0  0  0  0  0  0  0  0  0
   -1.7113   -3.8927   -2.9648 H   0  0  0  0  0  0  0  0  0  0  0  0
   -0.4764   -2.6649   -3.3328 H   0  0  0  0  0  0  0  0  0  0  0  0
    0.0205   -4.2601   -2.7818 H   0  0  0  0  0  0  0  0  0  0  0  0
   -5.1408    1.4165    0.4331 H   0  0  0  0  0  0  0  0  0  0  0  0
   -5.3256    0.6606   -1.1676 H   0  0  0  0  0  0  0  0  0  0  0  0
   -6.4245    0.2206    0.1338 H   0  0  0  0  0  0  0  0  0  0  0  0
    0.1813   -2.5983   -0.9245 H   0  0  0  0  0  0  0  0  0  0  0  0
   -1.0575   -3.8251   -0.5523 H   0  0  0  0  0  0  0  0  0  0  0  0
   -4.6994   -1.5544   -0.1989 H   0  0  0  0  0  0  0  0  0  0  0  0
   -4.5098   -0.7993    1.4049 H   0  0  0  0  0  0  0  0  0  0  0  0
  1  8  1  0  0  0  0
  1  9  2  0  0  0  0
  1 10  1  0  0  0  0
  2  3  1  0  0  0  0
  2  8  1  0  0  0  0
  3 10  1  0  0  0  0
  4  6  1  0  0  0  0
  5  7  1  0  0  0  0
  6 11  1  0  0  0  0
  7 12  1  0  0  0  0
  8 13  1  0  0  0  0
 11 13  1  0  0  0  0
 12 13  1  0  0  0  0
  2 14  1  0  0  0  0
  2 15  1  0  0  0  0
  3 16  1  0  0  0  0
  3 17  1  0  0  0  0
  4 18  1  0  0  0  0
  4 19  1  0  0  0  0
  4 20  1  0  0  0  0
  5 21  1  0  0  0  0
  5 22  1  0  0  0  0
  5 23  1  0  0  0  0
  6 24  1  0  0  0  0
  6 25  1  0  0  0  0
  7 26  1  0  0  0  0
  7 27  1  0  0  0  0
M  END
$$$$
