eMolecules_7464_6503587
  -OEChem-05261901553D

 10 10  0     1  0  0  0  0  0999 V2000
   -0.5672   -0.0614    1.5440 C   0  0  0  0  0  0  0  0  0  0  0  0
   -1.1357    0.9272    0.8445 C   0  0  0  0  0  0  0  0  0  0  0  0
    0.3728   -0.9105    0.7393 C   0  0  0  0  0  0  0  0  0  0  0  0
    0.2097   -0.4615   -0.6533 N   0  0  1  0  0  0  0  0  0  0  0  0
   -0.6417    0.9638   -0.8183 S   0  0  0  0  0  0  0  0  0  0  0  0
    1.7622   -0.4576   -1.6561 Br  0  0  0  0  0  0  0  0  0  0  0  0
   -0.7482   -0.2277    2.5971 H   0  0  0  0  0  0  0  0  0  0  0  0
   -1.8284    1.6481    1.2558 H   0  0  0  0  0  0  0  0  0  0  0  0
    1.3898   -0.7653    1.1231 H   0  0  0  0  0  0  0  0  0  0  0  0
    0.1080   -1.9692    0.8256 H   0  0  0  0  0  0  0  0  0  0  0  0
  1  2  2  0  0  0  0
  1  3  1  0  0  0  0
  2  5  1  0  0  0  0
  3  4  1  0  0  0  0
  4  5  1  0  0  0  0
  4  6  1  0  0  0  0
  1  7  1  0  0  0  0
  2  8  1  0  0  0  0
  3  9  1  0  0  0  0
  3 10  1  0  0  0  0
M  END
$$$$
