eMolecules_2044_1048509
  -OEChem-05261901543D

 53 54  0     0  0  0  0  0  0999 V2000
   -0.1121    0.2541    1.7123 C   0  0  0  0  0  0  0  0  0  0  0  0
    1.3760   -3.3360   -2.8384 C   0  0  0  0  0  0  0  0  0  0  0  0
   -4.5294    2.2054   -3.5478 C   0  0  0  0  0  0  0  0  0  0  0  0
    0.8672   -4.4618   -3.4859 C   0  0  0  0  0  0  0  0  0  0  0  0
   -5.4628    1.7158   -4.4614 C   0  0  0  0  0  0  0  0  0  0  0  0
   -0.1652   -1.9351   -4.0629 C   0  0  0  0  0  0  0  0  0  0  0  0
   -4.6829    0.1490   -2.2890 C   0  0  0  0  0  0  0  0  0  0  0  0
    0.8598   -2.0726   -3.1269 C   0  0  0  0  0  0  0  0  0  0  0  0
   -4.1394    1.4219   -2.4616 C   0  0  0  0  0  0  0  0  0  0  0  0
   -0.1577   -4.3243   -4.4220 C   0  0  0  0  0  0  0  0  0  0  0  0
   -6.0064    0.4428   -4.2888 C   0  0  0  0  0  0  0  0  0  0  0  0
   -0.6739   -3.0609   -4.7105 C   0  0  0  0  0  0  0  0  0  0  0  0
   -5.6164   -0.3406   -3.2025 C   0  0  0  0  0  0  0  0  0  0  0  0
    1.4033   -0.8672   -2.4317 C   0  0  0  0  0  0  0  0  0  0  0  0
   -3.1381    1.9455   -1.4845 C   0  0  0  0  0  0  0  0  0  0  0  0
   -0.0635   -6.6848   -4.6955 C   0  0  0  0  0  0  0  0  0  0  0  0
   -7.2613    0.8397   -6.2695 C   0  0  0  0  0  0  0  0  0  0  0  0
   -2.1474   -1.5884   -5.8578 C   0  0  0  0  0  0  0  0  0  0  0  0
   -5.4440   -2.6730   -3.6339 C   0  0  0  0  0  0  0  0  0  0  0  0
    1.9479   -1.0359   -1.0254 C   0  0  0  0  0  0  0  0  0  0  0  0
   -2.2376    0.9491   -0.7781 C   0  0  0  0  0  0  0  0  0  0  0  0
   -0.2980    0.1959    2.8569 N   0  0  0  0  0  0  0  0  0  0  0  0
    0.0978    0.3082    0.3848 N   0  0  0  0  0  0  0  0  0  0  0  0
    1.3940    0.2090   -3.0247 O   0  0  0  0  0  0  0  0  0  0  0  0
   -3.0781    3.1582   -1.2952 O   0  0  0  0  0  0  0  0  0  0  0  0
   -0.6461   -5.4315   -5.0476 O   0  0  0  0  0  0  0  0  0  0  0  0
   -6.9171   -0.0240   -5.1880 O   0  0  0  0  0  0  0  0  0  0  0  0
   -1.6766   -2.9137   -5.6209 O   0  0  0  0  0  0  0  0  0  0  0  0
   -6.1380   -1.5863   -3.0242 O   0  0  0  0  0  0  0  0  0  0  0  0
    1.7559    0.4736   -0.0500 S   0  0  0  0  0  0  0  0  0  0  0  0
   -0.6295    1.6703   -0.3776 S   0  0  0  0  0  0  0  0  0  0  0  0
    2.1746   -3.4550   -2.1107 H   0  0  0  0  0  0  0  0  0  0  0  0
   -4.1124    3.1987   -3.6924 H   0  0  0  0  0  0  0  0  0  0  0  0
    1.2738   -5.4430   -3.2571 H   0  0  0  0  0  0  0  0  0  0  0  0
   -5.7628    2.3310   -5.3053 H   0  0  0  0  0  0  0  0  0  0  0  0
   -0.5715   -0.9518   -4.2884 H   0  0  0  0  0  0  0  0  0  0  0  0
   -4.3792   -0.4654   -1.4444 H   0  0  0  0  0  0  0  0  0  0  0  0
   -0.5435   -7.4837   -5.2660 H   0  0  0  0  0  0  0  0  0  0  0  0
   -0.1923   -6.8594   -3.6244 H   0  0  0  0  0  0  0  0  0  0  0  0
    1.0026   -6.6604   -4.9331 H   0  0  0  0  0  0  0  0  0  0  0  0
   -7.9956    0.3465   -6.9112 H   0  0  0  0  0  0  0  0  0  0  0  0
   -6.3635    1.0813   -6.8440 H   0  0  0  0  0  0  0  0  0  0  0  0
   -7.6922    1.7594   -5.8668 H   0  0  0  0  0  0  0  0  0  0  0  0
   -2.9455   -1.6125   -6.6039 H   0  0  0  0  0  0  0  0  0  0  0  0
   -1.3221   -0.9654   -6.2115 H   0  0  0  0  0  0  0  0  0  0  0  0
   -2.5373   -1.1774   -4.9236 H   0  0  0  0  0  0  0  0  0  0  0  0
   -5.9648   -3.6082   -3.4140 H   0  0  0  0  0  0  0  0  0  0  0  0
   -4.4213   -2.7142   -3.2507 H   0  0  0  0  0  0  0  0  0  0  0  0
   -5.4199   -2.5175   -4.7151 H   0  0  0  0  0  0  0  0  0  0  0  0
    3.0137   -1.2755   -1.0731 H   0  0  0  0  0  0  0  0  0  0  0  0
    1.4018   -1.8328   -0.5132 H   0  0  0  0  0  0  0  0  0  0  0  0
   -2.0696    0.0852   -1.4269 H   0  0  0  0  0  0  0  0  0  0  0  0
   -2.7025    0.6350    0.1604 H   0  0  0  0  0  0  0  0  0  0  0  0
  1 22  3  0  0  0  0
  1 23  1  0  0  0  0
  2  4  2  0  0  0  0
  2  8  1  0  0  0  0
  3  5  2  0  0  0  0
  3  9  1  0  0  0  0
  4 10  1  0  0  0  0
  5 11  1  0  0  0  0
  6  8  2  0  0  0  0
  6 12  1  0  0  0  0
  7  9  2  0  0  0  0
  7 13  1  0  0  0  0
  8 14  1  0  0  0  0
  9 15  1  0  0  0  0
 10 12  2  0  0  0  0
 10 26  1  0  0  0  0
 11 13  2  0  0  0  0
 11 27  1  0  0  0  0
 12 28  1  0  0  0  0
 13 29  1  0  0  0  0
 14 20  1  0  0  0  0
 14 24  2  0  0  0  0
 15 21  1  0  0  0  0
 15 25  2  0  0  0  0
 16 26  1  0  0  0  0
 17 27  1  0  0  0  0
 18 28  1  0  0  0  0
 19 29  1  0  0  0  0
 20 30  1  0  0  0  0
 21 31  1  0  0  0  0
 23 30  1  0  0  0  0
 23 31  1  0  0  0  0
  2 32  1  0  0  0  0
  3 33  1  0  0  0  0
  4 34  1  0  0  0  0
  5 35  1  0  0  0  0
  6 36  1  0  0  0  0
  7 37  1  0  0  0  0
 16 38  1  0  0  0  0
 16 39  1  0  0  0  0
 16 40  1  0  0  0  0
 17 41  1  0  0  0  0
 17 42  1  0  0  0  0
 17 43  1  0  0  0  0
 18 44  1  0  0  0  0
 18 45  1  0  0  0  0
 18 46  1  0  0  0  0
 19 47  1  0  0  0  0
 19 48  1  0  0  0  0
 19 49  1  0  0  0  0
 20 50  1  0  0  0  0
 20 51  1  0  0  0  0
 21 52  1  0  0  0  0
 21 53  1  0  0  0  0
M  END
$$$$
