eMolecules_2006_1009767
  -OEChem-05261901553D

 25 26  0     0  0  0  0  0  0999 V2000
    0.2170    3.4398    0.3368 C   0  0  0  0  0  0  0  0  0  0  0  0
    1.4139    2.2444    2.0618 C   0  0  0  0  0  0  0  0  0  0  0  0
    0.6622    4.6507    0.8670 C   0  0  0  0  0  0  0  0  0  0  0  0
    1.8591    3.4553    2.5920 C   0  0  0  0  0  0  0  0  0  0  0  0
    0.5928    2.2366    0.9343 C   0  0  0  0  0  0  0  0  0  0  0  0
    1.4833    4.6585    1.9946 C   0  0  0  0  0  0  0  0  0  0  0  0
    0.1219    0.9527    0.3730 C   0  0  0  0  0  0  0  0  0  0  0  0
   -0.7661    0.8891   -0.8438 C   0  0  0  0  0  0  0  0  0  0  0  0
   -1.2173   -0.5585   -0.7550 C   0  0  0  0  0  0  0  0  0  0  0  0
    1.9600    5.9535    2.5604 C   0  0  0  0  0  0  0  0  0  0  0  0
    0.4358   -0.2071    0.8675 N   0  0  0  0  0  0  0  0  0  0  0  0
   -0.3836   -2.2570    0.6594 N   0  0  0  0  0  0  0  0  0  0  0  0
   -0.1496   -1.1227    0.0641 N   0  0  0  0  0  0  0  0  0  0  0  0
   -0.6384   -3.1272   -0.1792 O   0  0  0  0  0  0  0  0  0  0  0  0
   -0.4224    3.4446   -0.5421 H   0  0  0  0  0  0  0  0  0  0  0  0
    1.7130    1.3131    2.5357 H   0  0  0  0  0  0  0  0  0  0  0  0
    0.3647    5.5832    0.3950 H   0  0  0  0  0  0  0  0  0  0  0  0
    2.4991    3.4521    3.4705 H   0  0  0  0  0  0  0  0  0  0  0  0
   -1.5948    1.5984   -0.7790 H   0  0  0  0  0  0  0  0  0  0  0  0
   -0.1624    1.0798   -1.7370 H   0  0  0  0  0  0  0  0  0  0  0  0
   -2.1934   -0.6102   -0.2548 H   0  0  0  0  0  0  0  0  0  0  0  0
   -1.2953   -1.0272   -1.7413 H   0  0  0  0  0  0  0  0  0  0  0  0
    1.2514    6.3266    3.3099 H   0  0  0  0  0  0  0  0  0  0  0  0
    2.9432    5.8426    3.0358 H   0  0  0  0  0  0  0  0  0  0  0  0
    2.0702    6.7141    1.7765 H   0  0  0  0  0  0  0  0  0  0  0  0
  1  3  2  0  0  0  0
  1  5  1  0  0  0  0
  2  4  1  0  0  0  0
  2  5  2  0  0  0  0
  3  6  1  0  0  0  0
  4  6  2  0  0  0  0
  5  7  1  0  0  0  0
  6 10  1  0  0  0  0
  7  8  1  0  0  0  0
  7 11  2  0  0  0  0
  8  9  1  0  0  0  0
  9 13  1  0  0  0  0
 11 13  1  0  0  0  0
 12 13  1  0  0  0  0
 12 14  2  0  0  0  0
  1 15  1  0  0  0  0
  2 16  1  0  0  0  0
  3 17  1  0  0  0  0
  4 18  1  0  0  0  0
  8 19  1  0  0  0  0
  8 20  1  0  0  0  0
  9 21  1  0  0  0  0
  9 22  1  0  0  0  0
 10 23  1  0  0  0  0
 10 24  1  0  0  0  0
 10 25  1  0  0  0  0
M  END
$$$$
