eMolecules_2476_1482476
  -OEChem-05261901553D

 47 50  0     0  0  0  0  0  0999 V2000
    3.2153   -0.4862    0.1947 C   0  0  0  0  0  0  0  0  0  0  0  0
   -0.3602    1.9002    6.2093 C   0  0  0  0  0  0  0  0  0  0  0  0
    2.7720   -5.9611    1.7927 C   0  0  0  0  0  0  0  0  0  0  0  0
   -1.3240   -4.1616    7.3917 C   0  0  0  0  0  0  0  0  0  0  0  0
    4.0136   -0.1762    1.2956 C   0  0  0  0  0  0  0  0  0  0  0  0
    1.9327   -1.0001    0.3858 C   0  0  0  0  0  0  0  0  0  0  0  0
   -0.4322    1.8489    4.8173 C   0  0  0  0  0  0  0  0  0  0  0  0
    0.4080    0.9649    6.9028 C   0  0  0  0  0  0  0  0  0  0  0  0
    1.5522   -5.2886    1.8643 C   0  0  0  0  0  0  0  0  0  0  0  0
    3.8142   -5.6087    2.6502 C   0  0  0  0  0  0  0  0  0  0  0  0
   -0.0110   -4.4614    7.7548 C   0  0  0  0  0  0  0  0  0  0  0  0
   -1.5746   -3.3807    6.2635 C   0  0  0  0  0  0  0  0  0  0  0  0
    3.5294   -0.3802    2.5877 C   0  0  0  0  0  0  0  0  0  0  0  0
    1.4484   -1.2040    1.6779 C   0  0  0  0  0  0  0  0  0  0  0  0
    0.2637    0.8623    4.1187 C   0  0  0  0  0  0  0  0  0  0  0  0
    1.1039   -0.0217    6.2043 C   0  0  0  0  0  0  0  0  0  0  0  0
    1.3744   -4.2635    2.7935 C   0  0  0  0  0  0  0  0  0  0  0  0
    3.6365   -4.5837    3.5794 C   0  0  0  0  0  0  0  0  0  0  0  0
    1.0514   -3.9802    6.9896 C   0  0  0  0  0  0  0  0  0  0  0  0
   -0.5123   -2.8994    5.4983 C   0  0  0  0  0  0  0  0  0  0  0  0
    2.2468   -0.8941    2.7789 C   0  0  0  0  0  0  0  0  0  0  0  0
    1.0318   -0.0730    4.8122 C   0  0  0  0  0  0  0  0  0  0  0  0
    2.4166   -3.9111    3.6511 C   0  0  0  0  0  0  0  0  0  0  0  0
    0.8007   -3.1992    5.8614 C   0  0  0  0  0  0  0  0  0  0  0  0
    1.7568   -1.1003    4.0852 N   0  0  0  0  0  0  0  0  0  0  0  0
    3.4305   -2.4708    5.7341 O   0  0  0  0  0  0  0  0  0  0  0  0
    2.1845   -2.5724    4.8647 P   0  0  0  0  0  0  0  0  0  0  0  0
    3.5926   -0.3276   -0.8115 H   0  0  0  0  0  0  0  0  0  0  0  0
   -0.9024    2.6683    6.7532 H   0  0  0  0  0  0  0  0  0  0  0  0
    2.9103   -6.7592    1.0691 H   0  0  0  0  0  0  0  0  0  0  0  0
   -2.1510   -4.5364    7.9876 H   0  0  0  0  0  0  0  0  0  0  0  0
    5.0121    0.2237    1.1467 H   0  0  0  0  0  0  0  0  0  0  0  0
    1.3111   -1.2415   -0.4718 H   0  0  0  0  0  0  0  0  0  0  0  0
   -1.0303    2.5770    4.2775 H   0  0  0  0  0  0  0  0  0  0  0  0
    0.4639    1.0049    7.9869 H   0  0  0  0  0  0  0  0  0  0  0  0
    0.7408   -5.5627    1.1964 H   0  0  0  0  0  0  0  0  0  0  0  0
    4.7639   -6.1326    2.5945 H   0  0  0  0  0  0  0  0  0  0  0  0
    0.1842   -5.0692    8.6334 H   0  0  0  0  0  0  0  0  0  0  0  0
   -2.5970   -3.1476    5.9807 H   0  0  0  0  0  0  0  0  0  0  0  0
    4.1594   -0.1355    3.4390 H   0  0  0  0  0  0  0  0  0  0  0  0
    0.4472   -1.6048    1.8146 H   0  0  0  0  0  0  0  0  0  0  0  0
    0.2009    0.8310    3.0341 H   0  0  0  0  0  0  0  0  0  0  0  0
    1.6995   -0.7451    6.7554 H   0  0  0  0  0  0  0  0  0  0  0  0
    0.4228   -3.7423    2.8453 H   0  0  0  0  0  0  0  0  0  0  0  0
    4.4509   -4.3131    4.2454 H   0  0  0  0  0  0  0  0  0  0  0  0
    2.0722   -4.2158    7.2766 H   0  0  0  0  0  0  0  0  0  0  0  0
   -0.7125   -2.2920    4.6203 H   0  0  0  0  0  0  0  0  0  0  0  0
  1  5  1  0  0  0  0
  1  6  2  0  0  0  0
  2  7  1  0  0  0  0
  2  8  2  0  0  0  0
  3  9  1  0  0  0  0
  3 10  2  0  0  0  0
  4 11  1  0  0  0  0
  4 12  2  0  0  0  0
  5 13  2  0  0  0  0
  6 14  1  0  0  0  0
  7 15  2  0  0  0  0
  8 16  1  0  0  0  0
  9 17  2  0  0  0  0
 10 18  1  0  0  0  0
 11 19  2  0  0  0  0
 12 20  1  0  0  0  0
 13 21  1  0  0  0  0
 14 21  2  0  0  0  0
 15 22  1  0  0  0  0
 16 22  2  0  0  0  0
 17 23  1  0  0  0  0
 18 23  2  0  0  0  0
 19 24  1  0  0  0  0
 20 24  2  0  0  0  0
 21 25  1  0  0  0  0
 22 25  1  0  0  0  0
 23 27  1  0  0  0  0
 24 27  1  0  0  0  0
 25 27  1  0  0  0  0
 26 27  2  0  0  0  0
  1 28  1  0  0  0  0
  2 29  1  0  0  0  0
  3 30  1  0  0  0  0
  4 31  1  0  0  0  0
  5 32  1  0  0  0  0
  6 33  1  0  0  0  0
  7 34  1  0  0  0  0
  8 35  1  0  0  0  0
  9 36  1  0  0  0  0
 10 37  1  0  0  0  0
 11 38  1  0  0  0  0
 12 39  1  0  0  0  0
 13 40  1  0  0  0  0
 14 41  1  0  0  0  0
 15 42  1  0  0  0  0
 16 43  1  0  0  0  0
 17 44  1  0  0  0  0
 18 45  1  0  0  0  0
 19 46  1  0  0  0  0
 20 47  1  0  0  0  0
M  END
$$$$
