eMolecules_7004_6039360
  -OEChem-05261901553D

 42 43  0     0  0  0  0  0  0999 V2000
   -0.0751   -2.1735   -5.0696 C   0  0  0  0  0  0  0  0  0  0  0  0
    0.0799   -2.1386   -6.4554 C   0  0  0  0  0  0  0  0  0  0  0  0
    0.8575    0.0495   -4.9093 C   0  0  0  0  0  0  0  0  0  0  0  0
    0.3136   -1.0794   -4.2965 C   0  0  0  0  0  0  0  0  0  0  0  0
    0.6237   -1.0097   -7.0681 C   0  0  0  0  0  0  0  0  0  0  0  0
    1.0125    0.0844   -6.2951 C   0  0  0  0  0  0  0  0  0  0  0  0
   -0.7543    0.0119   -0.7950 C   0  0  0  0  0  0  0  0  0  0  0  0
   -1.4191   -1.3554   -0.9035 C   0  0  0  0  0  0  0  0  0  0  0  0
   -0.1018    0.2739   -2.1496 C   0  0  0  0  0  0  0  0  0  0  0  0
   -1.1380   -1.8512   -2.3192 C   0  0  0  0  0  0  0  0  0  0  0  0
    0.1414   -1.1165   -2.7785 C   0  0  0  0  0  0  0  0  0  0  0  0
    0.3477   -2.1472   -9.1383 C   0  0  0  0  0  0  0  0  0  0  0  0
    1.9171    2.2667   -6.0210 C   0  0  0  0  0  0  0  0  0  0  0  0
    1.3963   -1.7767   -2.1714 C   0  0  0  0  0  0  0  0  0  0  0  0
    3.7856   -1.6084   -1.9777 C   0  0  0  0  0  0  0  0  0  0  0  0
    2.5512   -1.0226   -2.5216 N   0  0  0  0  0  0  0  0  0  0  0  0
    4.9434   -0.8580   -2.3290 O   0  0  0  0  0  0  0  0  0  0  0  0
    0.7700   -0.9882   -8.4225 O   0  0  0  0  0  0  0  0  0  0  0  0
    1.5456    1.1921   -6.8821 O   0  0  0  0  0  0  0  0  0  0  0  0
   -0.5012   -3.0565   -4.6010 H   0  0  0  0  0  0  0  0  0  0  0  0
   -0.2246   -2.9944   -7.0514 H   0  0  0  0  0  0  0  0  0  0  0  0
    1.1608    0.9040   -4.3090 H   0  0  0  0  0  0  0  0  0  0  0  0
   -1.4759    0.7962   -0.5442 H   0  0  0  0  0  0  0  0  0  0  0  0
    0.0016   -0.0014   -0.0015 H   0  0  0  0  0  0  0  0  0  0  0  0
   -0.9877   -2.0407   -0.1650 H   0  0  0  0  0  0  0  0  0  0  0  0
   -2.4951   -1.3015   -0.7082 H   0  0  0  0  0  0  0  0  0  0  0  0
   -0.7924    0.8617   -2.7697 H   0  0  0  0  0  0  0  0  0  0  0  0
    0.8186    0.8603   -2.0517 H   0  0  0  0  0  0  0  0  0  0  0  0
   -1.0354   -2.9413   -2.3560 H   0  0  0  0  0  0  0  0  0  0  0  0
   -1.9869   -1.5868   -2.9642 H   0  0  0  0  0  0  0  0  0  0  0  0
    0.5193   -1.9988  -10.2072 H   0  0  0  0  0  0  0  0  0  0  0  0
   -0.7139   -2.3260   -8.9501 H   0  0  0  0  0  0  0  0  0  0  0  0
    0.9266   -3.0077   -8.7947 H   0  0  0  0  0  0  0  0  0  0  0  0
    2.3278    3.0861   -6.6160 H   0  0  0  0  0  0  0  0  0  0  0  0
    2.6608    1.9171   -5.3005 H   0  0  0  0  0  0  0  0  0  0  0  0
    1.0308    2.6164   -5.4862 H   0  0  0  0  0  0  0  0  0  0  0  0
    1.4847   -2.7779   -2.5690 H   0  0  0  0  0  0  0  0  0  0  0  0
    1.2927   -1.7989   -1.0960 H   0  0  0  0  0  0  0  0  0  0  0  0
    3.7342   -1.6494   -0.8843 H   0  0  0  0  0  0  0  0  0  0  0  0
    3.9189   -2.6231   -2.3674 H   0  0  0  0  0  0  0  0  0  0  0  0
    2.4845   -0.0567   -2.1673 H   0  0  0  0  0  0  0  0  0  0  0  0
    4.9931   -0.8488   -3.3001 H   0  0  0  0  0  0  0  0  0  0  0  0
  1  2  2  0  0  0  0
  1  4  1  0  0  0  0
  2  5  1  0  0  0  0
  3  4  2  0  0  0  0
  3  6  1  0  0  0  0
  4 11  1  0  0  0  0
  5  6  2  0  0  0  0
  5 18  1  0  0  0  0
  6 19  1  0  0  0  0
  7  8  1  0  0  0  0
  7  9  1  0  0  0  0
  8 10  1  0  0  0  0
  9 11  1  0  0  0  0
 10 11  1  0  0  0  0
 11 14  1  0  0  0  0
 12 18  1  0  0  0  0
 13 19  1  0  0  0  0
 14 16  1  0  0  0  0
 15 16  1  0  0  0  0
 15 17  1  0  0  0  0
  1 20  1  0  0  0  0
  2 21  1  0  0  0  0
  3 22  1  0  0  0  0
  7 23  1  0  0  0  0
  7 24  1  0  0  0  0
  8 25  1  0  0  0  0
  8 26  1  0  0  0  0
  9 27  1  0  0  0  0
  9 28  1  0  0  0  0
 10 29  1  0  0  0  0
 10 30  1  0  0  0  0
 12 31  1  0  0  0  0
 12 32  1  0  0  0  0
 12 33  1  0  0  0  0
 13 34  1  0  0  0  0
 13 35  1  0  0  0  0
 13 36  1  0  0  0  0
 14 37  1  0  0  0  0
 14 38  1  0  0  0  0
 15 39  1  0  0  0  0
 15 40  1  0  0  0  0
 16 41  1  0  0  0  0
 17 42  1  0  0  0  0
M  END
$$$$
