eMolecules_5967_4992063
  -OEChem-05261901553D

 32 32  0     0  0  0  0  0  0999 V2000
   -4.6101    4.5183    1.4452 C   0  0  0  0  0  0  0  0  0  0  0  0
   -3.9088    3.3427    1.7131 C   0  0  0  0  0  0  0  0  0  0  0  0
   -4.6079    5.0537    0.1571 C   0  0  0  0  0  0  0  0  0  0  0  0
   -3.2052    2.7025    0.6929 C   0  0  0  0  0  0  0  0  0  0  0  0
   -3.9043    4.4135   -0.8630 C   0  0  0  0  0  0  0  0  0  0  0  0
   -3.2029    3.2379   -0.5952 C   0  0  0  0  0  0  0  0  0  0  0  0
   -0.3869    3.4853   -1.8537 C   0  0  0  0  0  0  0  0  0  0  0  0
   -3.7576    0.9061   -2.5525 C   0  0  0  0  0  0  0  0  0  0  0  0
    1.0769    3.1913   -1.7227 C   0  0  0  0  0  0  0  0  0  0  0  0
   -4.4209    0.4630   -3.8213 C   0  0  0  0  0  0  0  0  0  0  0  0
   -5.2287    4.7381   -2.9671 C   0  0  0  0  0  0  0  0  0  0  0  0
   -3.9191    5.0092   -2.2332 C   0  0  0  0  0  0  0  0  0  0  0  0
   -2.4814    2.5728   -1.6208 N   0  0  0  0  0  0  0  0  0  0  0  0
   -0.8390    4.5677   -2.2026 O   0  0  0  0  0  0  0  0  0  0  0  0
   -3.7981    0.2773   -1.5033 O   0  0  0  0  0  0  0  0  0  0  0  0
   -1.1033    2.3696   -1.5207 O   0  0  0  0  0  0  0  0  0  0  0  0
   -3.1240    2.0985   -2.7666 O   0  0  0  0  0  0  0  0  0  0  0  0
   -5.1579    5.0167    2.2396 H   0  0  0  0  0  0  0  0  0  0  0  0
   -3.9107    2.9260    2.7160 H   0  0  0  0  0  0  0  0  0  0  0  0
   -5.1576    5.9701   -0.0412 H   0  0  0  0  0  0  0  0  0  0  0  0
   -2.6623    1.7870    0.9136 H   0  0  0  0  0  0  0  0  0  0  0  0
    1.4043    3.4266   -0.7060 H   0  0  0  0  0  0  0  0  0  0  0  0
    1.2599    2.1306   -1.9117 H   0  0  0  0  0  0  0  0  0  0  0  0
    1.6437    3.8112   -2.4219 H   0  0  0  0  0  0  0  0  0  0  0  0
   -5.4386    0.8587   -3.8650 H   0  0  0  0  0  0  0  0  0  0  0  0
   -4.4706   -0.6295   -3.8422 H   0  0  0  0  0  0  0  0  0  0  0  0
   -3.8383    0.8011   -4.6818 H   0  0  0  0  0  0  0  0  0  0  0  0
   -5.4242    3.6628   -3.0393 H   0  0  0  0  0  0  0  0  0  0  0  0
   -5.1934    5.1452   -3.9824 H   0  0  0  0  0  0  0  0  0  0  0  0
   -6.0746    5.1991   -2.4460 H   0  0  0  0  0  0  0  0  0  0  0  0
   -3.7535    6.0962   -2.1783 H   0  0  0  0  0  0  0  0  0  0  0  0
   -3.0819    4.6148   -2.8295 H   0  0  0  0  0  0  0  0  0  0  0  0
  1  2  1  0  0  0  0
  1  3  2  0  0  0  0
  2  4  2  0  0  0  0
  3  5  1  0  0  0  0
  4  6  1  0  0  0  0
  5  6  2  0  0  0  0
  5 12  1  0  0  0  0
  6 13  1  0  0  0  0
  7  9  1  0  0  0  0
  7 14  2  0  0  0  0
  7 16  1  0  0  0  0
  8 10  1  0  0  0  0
  8 15  2  0  0  0  0
  8 17  1  0  0  0  0
 11 12  1  0  0  0  0
 13 16  1  0  0  0  0
 13 17  1  0  0  0  0
  1 18  1  0  0  0  0
  2 19  1  0  0  0  0
  3 20  1  0  0  0  0
  4 21  1  0  0  0  0
  9 22  1  0  0  0  0
  9 23  1  0  0  0  0
  9 24  1  0  0  0  0
 10 25  1  0  0  0  0
 10 26  1  0  0  0  0
 10 27  1  0  0  0  0
 11 28  1  0  0  0  0
 11 29  1  0  0  0  0
 11 30  1  0  0  0  0
 12 31  1  0  0  0  0
 12 32  1  0  0  0  0
M  END
$$$$
