eMolecules_2381_1386847
  -OEChem-05261901553D

 22 21  0     0  0  0  0  0  0999 V2000
    1.8760    2.3502   -0.5408 C   0  0  0  0  0  0  0  0  0  0  0  0
   -0.0388   -2.2417   -0.1637 C   0  0  0  0  0  0  0  0  0  0  0  0
   -0.2911    0.9492    1.2366 C   0  0  0  0  0  0  0  0  0  0  0  0
   -1.2393    2.1361    1.2619 C   0  0  0  0  0  0  0  0  0  0  0  0
   -0.0154    0.4643   -0.1493 N   0  0  0  0  0  0  0  0  0  0  0  0
    2.5125   -0.0415    0.2891 O   0  0  0  0  0  0  0  0  0  0  0  0
    1.7256    0.2405   -2.0813 O   0  0  0  0  0  0  0  0  0  0  0  0
   -2.2410   -0.8837    0.0794 O   0  0  0  0  0  0  0  0  0  0  0  0
   -1.0519   -0.8623   -2.1422 O   0  0  0  0  0  0  0  0  0  0  0  0
    1.6360    0.5923   -0.6768 S   0  0  0  0  0  0  0  0  0  0  0  0
   -1.0134   -0.8507   -0.6925 S   0  0  0  0  0  0  0  0  0  0  0  0
   -1.5400    2.6898    2.9277 Cl  0  0  0  0  0  0  0  0  0  0  0  0
    2.8968    2.5832   -0.8480 H   0  0  0  0  0  0  0  0  0  0  0  0
    1.1572    2.8475   -1.1939 H   0  0  0  0  0  0  0  0  0  0  0  0
    1.7137    2.6405    0.4983 H   0  0  0  0  0  0  0  0  0  0  0  0
   -0.5613   -3.1564   -0.4482 H   0  0  0  0  0  0  0  0  0  0  0  0
    0.9335   -2.1879   -0.6558 H   0  0  0  0  0  0  0  0  0  0  0  0
    0.0772   -2.1887    0.9198 H   0  0  0  0  0  0  0  0  0  0  0  0
   -0.6890    0.1078    1.8132 H   0  0  0  0  0  0  0  0  0  0  0  0
    0.6732    1.2324    1.6699 H   0  0  0  0  0  0  0  0  0  0  0  0
   -2.2066    1.8853    0.8163 H   0  0  0  0  0  0  0  0  0  0  0  0
   -0.8095    2.9784    0.7120 H   0  0  0  0  0  0  0  0  0  0  0  0
  1 10  1  0  0  0  0
  2 11  1  0  0  0  0
  3  4  1  0  0  0  0
  3  5  1  0  0  0  0
  4 12  1  0  0  0  0
  5 10  1  0  0  0  0
  5 11  1  0  0  0  0
  6 10  2  0  0  0  0
  7 10  2  0  0  0  0
  8 11  2  0  0  0  0
  9 11  2  0  0  0  0
  1 13  1  0  0  0  0
  1 14  1  0  0  0  0
  1 15  1  0  0  0  0
  2 16  1  0  0  0  0
  2 17  1  0  0  0  0
  2 18  1  0  0  0  0
  3 19  1  0  0  0  0
  3 20  1  0  0  0  0
  4 21  1  0  0  0  0
  4 22  1  0  0  0  0
M  END
$$$$
