eMolecules_7139_6175537
  -OEChem-05261901563D

 20 21  0     0  0  0  0  0  0999 V2000
    1.8851   -1.0363   -0.1124 C   0  0  0  0  0  0  0  0  0  0  0  0
    2.8783   -1.6520    2.0022 C   0  0  0  0  0  0  0  0  0  0  0  0
    0.8066   -0.4630    0.5610 C   0  0  0  0  0  0  0  0  0  0  0  0
    1.7997   -1.0786    2.6757 C   0  0  0  0  0  0  0  0  0  0  0  0
    2.7406   -7.1351   -0.6084 C   0  0  0  0  0  0  0  0  0  0  0  0
    2.9210   -1.6309    0.6081 C   0  0  0  0  0  0  0  0  0  0  0  0
    0.7638   -0.4841    1.9551 C   0  0  0  0  0  0  0  0  0  0  0  0
    3.3282   -4.8559   -0.7725 C   0  0  0  0  0  0  0  0  0  0  0  0
    3.5130   -6.7575    0.3881 N   0  0  0  0  0  0  0  0  0  0  0  0
    3.8568   -5.4204    0.2923 N   0  0  0  0  0  0  0  0  0  0  0  0
    3.4926   -3.5045   -1.1383 N   0  0  0  0  0  0  0  0  0  0  0  0
    2.3726   -5.9004   -1.7405 S   0  0  0  0  0  0  0  0  0  0  0  0
    4.2987   -2.3634   -0.2527 S   0  0  0  0  0  0  0  0  0  0  0  0
   -0.8418    0.3705    2.9589 I   0  0  0  0  0  0  0  0  0  0  0  0
    1.9009   -1.0095   -1.1994 H   0  0  0  0  0  0  0  0  0  0  0  0
    3.6765   -2.1112    2.5804 H   0  0  0  0  0  0  0  0  0  0  0  0
    0.0101   -0.0054   -0.0203 H   0  0  0  0  0  0  0  0  0  0  0  0
    1.7862   -1.1054    3.7622 H   0  0  0  0  0  0  0  0  0  0  0  0
    2.3674   -8.1447   -0.7076 H   0  0  0  0  0  0  0  0  0  0  0  0
    3.0186   -3.2217   -1.9911 H   0  0  0  0  0  0  0  0  0  0  0  0
  1  3  1  0  0  0  0
  1  6  2  0  0  0  0
  2  4  2  0  0  0  0
  2  6  1  0  0  0  0
  3  7  2  0  0  0  0
  4  7  1  0  0  0  0
  5  9  2  0  0  0  0
  5 12  1  0  0  0  0
  6 13  1  0  0  0  0
  7 14  1  0  0  0  0
  8 10  2  0  0  0  0
  8 11  1  0  0  0  0
  8 12  1  0  0  0  0
  9 10  1  0  0  0  0
 11 13  1  0  0  0  0
  1 15  1  0  0  0  0
  2 16  1  0  0  0  0
  3 17  1  0  0  0  0
  4 18  1  0  0  0  0
  5 19  1  0  0  0  0
 11 20  1  0  0  0  0
M  END
$$$$
