eMolecules_2091_1096067
  -OEChem-05261901553D

 24 23  0     0  0  0  0  0  0999 V2000
    0.7123    0.6767   -3.6425 C   0  0  0  0  0  0  0  0  0  0  0  0
    0.4013    0.4524   -5.1031 C   0  0  0  0  0  0  0  0  0  0  0  0
   -0.4372    0.0662   -0.6006 C   0  0  0  0  0  0  0  0  0  0  0  0
    0.8237   -0.3356   -1.3731 C   0  0  0  0  0  0  0  0  0  0  0  0
   -0.2702    0.1708    0.9278 C   0  0  0  0  0  0  0  0  0  0  0  0
    0.5609   -0.4152   -2.7852 N   0  0  0  0  0  0  0  0  0  0  0  0
   -1.5822    0.5768    1.6066 N   0  3  0  0  0  0  0  0  0  0  0  0
    0.7755    1.2415    1.2340 N   0  3  0  0  0  0  0  0  0  0  0  0
    0.0994   -1.1617    1.5752 N   0  3  0  0  0  0  0  0  0  0  0  0
   -2.5718    0.7636    0.8857 O   0  5  0  0  0  0  0  0  0  0  0  0
    0.3911    2.4097    1.3853 O   0  5  0  0  0  0  0  0  0  0  0  0
   -0.3047   -2.2038    1.0383 O   0  5  0  0  0  0  0  0  0  0  0  0
    1.0809    1.7914   -3.2643 O   0  0  0  0  0  0  0  0  0  0  0  0
   -1.5855    0.6729    2.8433 O   0  0  0  0  0  0  0  0  0  0  0  0
    1.9476    0.8643    1.3797 O   0  0  0  0  0  0  0  0  0  0  0  0
    0.8305   -1.1293    2.5744 O   0  0  0  0  0  0  0  0  0  0  0  0
    0.0352   -1.9634   -3.3808 Cl  0  0  0  0  0  0  0  0  0  0  0  0
   -0.6526    0.6624   -5.3035 H   0  0  0  0  0  0  0  0  0  0  0  0
    1.0405    1.0816   -5.7283 H   0  0  0  0  0  0  0  0  0  0  0  0
    0.5959   -0.5935   -5.3594 H   0  0  0  0  0  0  0  0  0  0  0  0
   -1.2372   -0.6457   -0.8497 H   0  0  0  0  0  0  0  0  0  0  0  0
   -0.7790    1.0322   -1.0008 H   0  0  0  0  0  0  0  0  0  0  0  0
    1.1998   -1.3140   -1.0623 H   0  0  0  0  0  0  0  0  0  0  0  0
    1.6234    0.3993   -1.2437 H   0  0  0  0  0  0  0  0  0  0  0  0
  1  2  1  0  0  0  0
  1  6  1  0  0  0  0
  1 13  2  0  0  0  0
  3  4  1  0  0  0  0
  3  5  1  0  0  0  0
  4  6  1  0  0  0  0
  5  7  1  0  0  0  0
  5  8  1  0  0  0  0
  5  9  1  0  0  0  0
  6 17  1  0  0  0  0
  7 10  1  0  0  0  0
  7 14  2  0  0  0  0
  8 11  1  0  0  0  0
  8 15  2  0  0  0  0
  9 12  1  0  0  0  0
  9 16  2  0  0  0  0
  2 18  1  0  0  0  0
  2 19  1  0  0  0  0
  2 20  1  0  0  0  0
  3 21  1  0  0  0  0
  3 22  1  0  0  0  0
  4 23  1  0  0  0  0
  4 24  1  0  0  0  0
M  CHG  6   7   1   8   1   9   1  10  -1  11  -1  12  -1
M  END
$$$$
