eMolecules_8932_7980778
  -OEChem-05261901553D

 13 13  0     0  0  0  0  0  0999 V2000
    0.5881    0.8905    1.8661 C   0  0  0  0  0  0  0  0  0  0  0  0
   -0.2066    0.1010    1.0601 C   0  0  0  0  0  0  0  0  0  0  0  0
    0.2261    0.9401    3.1967 C   0  0  0  0  0  0  0  0  0  0  0  0
   -1.5246   -0.4612    2.8247 C   0  0  0  0  0  0  0  0  0  0  0  0
   -1.2746   -0.5912    1.5079 N   0  0  0  0  0  0  0  0  0  0  0  0
   -0.8283    0.2746    3.7121 N   0  0  0  0  0  0  0  0  0  0  0  0
    1.0166    1.7399    4.0580 N   0  0  0  0  0  0  0  0  0  0  0  0
   -2.6070   -1.1536    3.3159 O   0  0  0  0  0  0  0  0  0  0  0  0
    2.3521    1.7527    3.5485 F   0  0  0  0  0  0  0  0  0  0  0  0
    0.7709    1.3199    5.4020 F   0  0  0  0  0  0  0  0  0  0  0  0
    1.4374    1.4304    1.4664 H   0  0  0  0  0  0  0  0  0  0  0  0
   -0.0002    0.0002   -0.0001 H   0  0  0  0  0  0  0  0  0  0  0  0
   -3.0289   -1.6426    2.5981 H   0  0  0  0  0  0  0  0  0  0  0  0
  1  2  1  0  0  0  0
  1  3  2  0  0  0  0
  2  5  2  0  0  0  0
  3  6  1  0  0  0  0
  3  7  1  0  0  0  0
  4  5  1  0  0  0  0
  4  6  2  0  0  0  0
  4  8  1  0  0  0  0
  7  9  1  0  0  0  0
  7 10  1  0  0  0  0
  1 11  1  0  0  0  0
  2 12  1  0  0  0  0
  8 13  1  0  0  0  0
M  END
$$$$
