eMolecules_1075_77831
  -OEChem-05261901553D

 11 11  0     0  0  0  0  0  0999 V2000
    0.0890   -0.9817   -0.4426 C   0  0  0  0  0  0  0  0  0  0  0  0
    0.0707   -2.7221   -1.7863 C   0  0  0  0  0  0  0  0  0  0  0  0
   -0.2303   -1.3824   -1.7538 C   0  0  0  0  0  0  0  0  0  0  0  0
    0.5568   -1.9856    0.3039 N   0  0  0  0  0  0  0  0  0  0  0  0
    0.5336   -3.0305   -0.5409 N   0  0  0  0  0  0  0  0  0  0  0  0
   -0.7176   -0.6279   -2.7569 N   0  0  0  0  0  0  0  0  0  0  0  0
    0.0012   -0.0011    0.0036 H   0  0  0  0  0  0  0  0  0  0  0  0
    0.0007   -3.4701   -2.5635 H   0  0  0  0  0  0  0  0  0  0  0  0
    0.8526   -3.9293   -0.2013 H   0  0  0  0  0  0  0  0  0  0  0  0
   -0.8770   -1.0060   -3.7045 H   0  0  0  0  0  0  0  0  0  0  0  0
   -0.8687    0.3889   -2.6590 H   0  0  0  0  0  0  0  0  0  0  0  0
  1  3  1  0  0  0  0
  1  4  2  0  0  0  0
  2  3  2  0  0  0  0
  2  5  1  0  0  0  0
  3  6  1  0  0  0  0
  4  5  1  0  0  0  0
  1  7  1  0  0  0  0
  2  8  1  0  0  0  0
  5  9  1  0  0  0  0
  6 10  1  0  0  0  0
  6 11  1  0  0  0  0
M  END
$$$$
