eMolecules_1046_47964
  -OEChem-05261901553D

 37 39  0     0  0  0  0  0  0999 V2000
    1.8839   -1.0347   -0.1125 C   0  0  0  0  0  0  0  0  0  0  0  0
    5.4229   -2.9945    5.6038 C   0  0  0  0  0  0  0  0  0  0  0  0
   -1.7801   -2.9678    5.9563 C   0  0  0  0  0  0  0  0  0  0  0  0
    1.3197   -2.1242    0.5511 C   0  0  0  0  0  0  0  0  0  0  0  0
    2.4060    0.0328    0.6180 C   0  0  0  0  0  0  0  0  0  0  0  0
    5.3815   -1.6142    5.4073 C   0  0  0  0  0  0  0  0  0  0  0  0
    4.2939   -3.7705    5.3415 C   0  0  0  0  0  0  0  0  0  0  0  0
   -1.8775   -2.3366    4.7163 C   0  0  0  0  0  0  0  0  0  0  0  0
   -0.5571   -3.0044    6.6262 C   0  0  0  0  0  0  0  0  0  0  0  0
    1.2776   -2.1461    1.9452 C   0  0  0  0  0  0  0  0  0  0  0  0
    2.3639    0.0108    2.0120 C   0  0  0  0  0  0  0  0  0  0  0  0
    4.2111   -1.0098    4.9485 C   0  0  0  0  0  0  0  0  0  0  0  0
    3.1234   -3.1661    4.8827 C   0  0  0  0  0  0  0  0  0  0  0  0
   -0.7519   -1.7420    4.1460 C   0  0  0  0  0  0  0  0  0  0  0  0
    0.5685   -2.4099    6.0559 C   0  0  0  0  0  0  0  0  0  0  0  0
    1.7997   -1.0786    2.6757 C   0  0  0  0  0  0  0  0  0  0  0  0
    3.0820   -1.7858    4.6862 C   0  0  0  0  0  0  0  0  0  0  0  0
    0.4712   -1.7787    4.8159 C   0  0  0  0  0  0  0  0  0  0  0  0
    1.7548   -1.1014    4.1663 C   0  0  0  0  0  0  0  0  0  0  0  0
    1.6915    0.2895    4.7638 N   0  0  0  0  0  0  0  0  0  0  0  0
    0.5712    0.8947    4.3054 F   0  0  0  0  0  0  0  0  0  0  0  0
    1.7121    0.1710    6.1117 F   0  0  0  0  0  0  0  0  0  0  0  0
    1.9178   -1.0184   -1.1979 H   0  0  0  0  0  0  0  0  0  0  0  0
    6.3347   -3.4650    5.9598 H   0  0  0  0  0  0  0  0  0  0  0  0
   -2.6569   -3.4295    6.4008 H   0  0  0  0  0  0  0  0  0  0  0  0
    0.9141   -2.9559   -0.0174 H   0  0  0  0  0  0  0  0  0  0  0  0
    2.8463    0.8807    0.1017 H   0  0  0  0  0  0  0  0  0  0  0  0
    6.2608   -1.0099    5.6105 H   0  0  0  0  0  0  0  0  0  0  0  0
    4.3261   -4.8453    5.4933 H   0  0  0  0  0  0  0  0  0  0  0  0
   -2.8299   -2.3070    4.1951 H   0  0  0  0  0  0  0  0  0  0  0  0
   -0.4812   -3.4948    7.5921 H   0  0  0  0  0  0  0  0  0  0  0  0
    0.8359   -2.9991    2.4538 H   0  0  0  0  0  0  0  0  0  0  0  0
    2.7730    0.8470    2.5729 H   0  0  0  0  0  0  0  0  0  0  0  0
    4.1879    0.0664    4.7985 H   0  0  0  0  0  0  0  0  0  0  0  0
    2.2486   -3.7787    4.6810 H   0  0  0  0  0  0  0  0  0  0  0  0
   -0.8371   -1.2526    3.1794 H   0  0  0  0  0  0  0  0  0  0  0  0
    1.5172   -2.4435    6.5850 H   0  0  0  0  0  0  0  0  0  0  0  0
  1  4  1  0  0  0  0
  1  5  2  0  0  0  0
  2  6  1  0  0  0  0
  2  7  2  0  0  0  0
  3  8  1  0  0  0  0
  3  9  2  0  0  0  0
  4 10  2  0  0  0  0
  5 11  1  0  0  0  0
  6 12  2  0  0  0  0
  7 13  1  0  0  0  0
  8 14  2  0  0  0  0
  9 15  1  0  0  0  0
 10 16  1  0  0  0  0
 11 16  2  0  0  0  0
 12 17  1  0  0  0  0
 13 17  2  0  0  0  0
 14 18  1  0  0  0  0
 15 18  2  0  0  0  0
 16 19  1  0  0  0  0
 17 19  1  0  0  0  0
 18 19  1  0  0  0  0
 19 20  1  0  0  0  0
 20 21  1  0  0  0  0
 20 22  1  0  0  0  0
  1 23  1  0  0  0  0
  2 24  1  0  0  0  0
  3 25  1  0  0  0  0
  4 26  1  0  0  0  0
  5 27  1  0  0  0  0
  6 28  1  0  0  0  0
  7 29  1  0  0  0  0
  8 30  1  0  0  0  0
  9 31  1  0  0  0  0
 10 32  1  0  0  0  0
 11 33  1  0  0  0  0
 12 34  1  0  0  0  0
 13 35  1  0  0  0  0
 14 36  1  0  0  0  0
 15 37  1  0  0  0  0
M  END
$$$$
