eMolecules_5969_4993987
  -OEChem-05261901553D

 29 28  0     0  0  0  0  0  0999 V2000
   -2.7609    0.2371    0.0037 C   0  0  0  0  0  0  0  0  0  0  0  0
    1.1070    2.0681    7.4492 C   0  0  0  0  0  0  0  0  0  0  0  0
   -3.1351    1.5122    0.7430 C   0  0  0  0  0  0  0  0  0  0  0  0
   -0.2238    2.0962    6.7137 C   0  0  0  0  0  0  0  0  0  0  0  0
   -2.0422    1.9264    1.7310 C   0  0  0  0  0  0  0  0  0  0  0  0
   -0.1251    2.8924    5.4104 C   0  0  0  0  0  0  0  0  0  0  0  0
   -2.3629    3.2356    2.4445 C   0  0  0  0  0  0  0  0  0  0  0  0
   -1.4298    2.8877    4.6207 C   0  0  0  0  0  0  0  0  0  0  0  0
   -1.3228    3.6343    3.3520 N   0  0  0  0  0  0  0  0  0  0  0  0
   -0.9194    5.2649    3.4610 S   0  0  0  0  0  0  0  0  0  0  0  0
    0.2532    5.3983    1.8068 Cl  0  0  0  0  0  0  0  0  0  0  0  0
   -2.5878   -0.5861    0.7044 H   0  0  0  0  0  0  0  0  0  0  0  0
   -3.5674   -0.0581   -0.6748 H   0  0  0  0  0  0  0  0  0  0  0  0
   -1.8526    0.3798   -0.5904 H   0  0  0  0  0  0  0  0  0  0  0  0
    1.4490    3.0822    7.6799 H   0  0  0  0  0  0  0  0  0  0  0  0
    1.0075    1.5204    8.3916 H   0  0  0  0  0  0  0  0  0  0  0  0
    1.8771    1.5736    6.8487 H   0  0  0  0  0  0  0  0  0  0  0  0
   -3.3010    2.3141    0.0143 H   0  0  0  0  0  0  0  0  0  0  0  0
   -4.0820    1.3514    1.2705 H   0  0  0  0  0  0  0  0  0  0  0  0
   -0.5367    1.0679    6.4985 H   0  0  0  0  0  0  0  0  0  0  0  0
   -0.9827    2.5362    7.3704 H   0  0  0  0  0  0  0  0  0  0  0  0
   -1.8924    1.1286    2.4690 H   0  0  0  0  0  0  0  0  0  0  0  0
   -1.0961    2.0473    1.1895 H   0  0  0  0  0  0  0  0  0  0  0  0
    0.1706    3.9253    5.6323 H   0  0  0  0  0  0  0  0  0  0  0  0
    0.6632    2.4583    4.7836 H   0  0  0  0  0  0  0  0  0  0  0  0
   -3.2945    3.1600    3.0141 H   0  0  0  0  0  0  0  0  0  0  0  0
   -2.4752    4.0423    1.7132 H   0  0  0  0  0  0  0  0  0  0  0  0
   -2.2472    3.3273    5.2009 H   0  0  0  0  0  0  0  0  0  0  0  0
   -1.7081    1.8605    4.3644 H   0  0  0  0  0  0  0  0  0  0  0  0
  1  3  1  0  0  0  0
  2  4  1  0  0  0  0
  3  5  1  0  0  0  0
  4  6  1  0  0  0  0
  5  7  1  0  0  0  0
  6  8  1  0  0  0  0
  7  9  1  0  0  0  0
  8  9  1  0  0  0  0
  9 10  1  0  0  0  0
 10 11  1  0  0  0  0
  1 12  1  0  0  0  0
  1 13  1  0  0  0  0
  1 14  1  0  0  0  0
  2 15  1  0  0  0  0
  2 16  1  0  0  0  0
  2 17  1  0  0  0  0
  3 18  1  0  0  0  0
  3 19  1  0  0  0  0
  4 20  1  0  0  0  0
  4 21  1  0  0  0  0
  5 22  1  0  0  0  0
  5 23  1  0  0  0  0
  6 24  1  0  0  0  0
  6 25  1  0  0  0  0
  7 26  1  0  0  0  0
  7 27  1  0  0  0  0
  8 28  1  0  0  0  0
  8 29  1  0  0  0  0
M  END
$$$$
