eMolecules_1103_105875
  -OEChem-05261901553D

 19 19  0     0  0  0  0  0  0999 V2000
    2.0304   -1.2161   -0.1043 C   0  0  0  0  0  0  0  0  0  0  0  0
    0.9305   -0.6132    0.5060 C   0  0  0  0  0  0  0  0  0  0  0  0
    3.0390   -1.7803    0.6767 C   0  0  0  0  0  0  0  0  0  0  0  0
    0.8394   -0.5744    1.8974 C   0  0  0  0  0  0  0  0  0  0  0  0
    2.9479   -1.7415    2.0680 C   0  0  0  0  0  0  0  0  0  0  0  0
    1.8481   -1.1386    2.6784 C   0  0  0  0  0  0  0  0  0  0  0  0
    1.0847   -0.0425    4.7597 C   0  0  0  0  0  0  0  0  0  0  0  0
    0.4319   -0.3642    6.0877 C   0  0  0  0  0  0  0  0  0  0  0  0
    1.7567   -1.0998    4.0701 N   0  0  0  0  0  0  0  0  0  0  0  0
    1.0239    1.1205    4.3537 O   0  0  0  0  0  0  0  0  0  0  0  0
    2.4658   -2.3575    5.0976 Cl  0  0  0  0  0  0  0  0  0  0  0  0
    2.1013   -1.2472   -1.1877 H   0  0  0  0  0  0  0  0  0  0  0  0
    0.1446   -0.1746   -0.1017 H   0  0  0  0  0  0  0  0  0  0  0  0
    3.8949   -2.2506    0.2011 H   0  0  0  0  0  0  0  0  0  0  0  0
   -0.0225   -0.1020    2.3619 H   0  0  0  0  0  0  0  0  0  0  0  0
    3.7401   -2.1845    2.6665 H   0  0  0  0  0  0  0  0  0  0  0  0
    1.1545   -0.2020    6.8940 H   0  0  0  0  0  0  0  0  0  0  0  0
    0.1215   -1.4120    6.1144 H   0  0  0  0  0  0  0  0  0  0  0  0
   -0.4207    0.2959    6.2686 H   0  0  0  0  0  0  0  0  0  0  0  0
  1  2  1  0  0  0  0
  1  3  2  0  0  0  0
  2  4  2  0  0  0  0
  3  5  1  0  0  0  0
  4  6  1  0  0  0  0
  5  6  2  0  0  0  0
  6  9  1  0  0  0  0
  7  8  1  0  0  0  0
  7  9  1  0  0  0  0
  7 10  2  0  0  0  0
  9 11  1  0  0  0  0
  1 12  1  0  0  0  0
  2 13  1  0  0  0  0
  3 14  1  0  0  0  0
  4 15  1  0  0  0  0
  5 16  1  0  0  0  0
  8 17  1  0  0  0  0
  8 18  1  0  0  0  0
  8 19  1  0  0  0  0
M  END
$$$$
