eMolecules_4494_3513211
  -OEChem-05261901553D

 19 18  0     0  0  0  0  0  0999 V2000
    0.9630   -0.4838    0.2038 C   0  0  0  0  0  0  0  0  0  0  0  0
    1.9684    1.0469   -1.3136 C   0  0  0  0  0  0  0  0  0  0  0  0
    2.8366   -2.9734   -0.7494 C   0  0  0  0  0  0  0  0  0  0  0  0
    4.0252   -1.1628   -2.5185 C   0  0  0  0  0  0  0  0  0  0  0  0
    1.8725   -0.3677   -0.9403 N   0  0  0  0  0  0  0  0  0  0  0  0
    4.2925   -0.8646    0.1765 O   0  0  0  0  0  0  0  0  0  0  0  0
    3.2892   -1.2397   -0.8812 P   0  0  0  0  0  0  0  0  0  0  0  0
    0.8710   -1.5302    0.5059 H   0  0  0  0  0  0  0  0  0  0  0  0
   -0.0281   -0.1056   -0.0614 H   0  0  0  0  0  0  0  0  0  0  0  0
    1.3440    0.0946    1.0497 H   0  0  0  0  0  0  0  0  0  0  0  0
    2.6418    1.1656   -2.1665 H   0  0  0  0  0  0  0  0  0  0  0  0
    2.3549    1.6336   -0.4758 H   0  0  0  0  0  0  0  0  0  0  0  0
    0.9829    1.4334   -1.5869 H   0  0  0  0  0  0  0  0  0  0  0  0
    2.3678   -3.1663    0.2187 H   0  0  0  0  0  0  0  0  0  0  0  0
    2.1324   -3.2385   -1.5420 H   0  0  0  0  0  0  0  0  0  0  0  0
    3.7261   -3.6014   -0.8427 H   0  0  0  0  0  0  0  0  0  0  0  0
    4.3525   -0.1429   -2.7352 H   0  0  0  0  0  0  0  0  0  0  0  0
    4.8889   -1.8302   -2.5731 H   0  0  0  0  0  0  0  0  0  0  0  0
    3.2951   -1.4674   -3.2725 H   0  0  0  0  0  0  0  0  0  0  0  0
  1  5  1  0  0  0  0
  2  5  1  0  0  0  0
  3  7  1  0  0  0  0
  4  7  1  0  0  0  0
  5  7  1  0  0  0  0
  6  7  2  0  0  0  0
  1  8  1  0  0  0  0
  1  9  1  0  0  0  0
  1 10  1  0  0  0  0
  2 11  1  0  0  0  0
  2 12  1  0  0  0  0
  2 13  1  0  0  0  0
  3 14  1  0  0  0  0
  3 15  1  0  0  0  0
  3 16  1  0  0  0  0
  4 17  1  0  0  0  0
  4 18  1  0  0  0  0
  4 19  1  0  0  0  0
M  END
$$$$
