eMolecules_7270_6308146
  -OEChem-05261901553D

 15 16  0     0  0  0  0  0  0999 V2000
    0.1430   -0.2602   -0.4082 C   0  0  0  0  0  0  0  0  0  0  0  0
   -0.7068    0.7156    1.5615 C   0  0  0  0  0  0  0  0  0  0  0  0
   -1.3432   -0.6807    1.3162 C   0  0  0  0  0  0  0  0  0  0  0  0
    0.9774   -0.0403   -1.3912 N   0  0  0  0  0  0  0  0  0  0  0  0
    1.5156    1.2232   -1.1172 N   0  0  0  0  0  0  0  0  0  0  0  0
    1.0084    1.7411    0.0072 N   0  0  0  0  0  0  0  0  0  0  0  0
    0.1702    0.8054    0.4177 N   0  0  0  0  0  0  0  0  0  0  0  0
   -0.7254   -1.1586    0.0708 N   0  0  0  0  0  0  0  0  0  0  0  0
   -1.0392   -2.3456   -0.4569 N   0  3  0  0  0  0  0  0  0  0  0  0
   -0.4640   -2.6543   -1.5088 O   0  5  0  0  0  0  0  0  0  0  0  0
   -1.8748   -3.0220    0.1573 O   0  0  0  0  0  0  0  0  0  0  0  0
   -1.4345    1.5285    1.5092 H   0  0  0  0  0  0  0  0  0  0  0  0
   -0.1027    0.7544    2.4708 H   0  0  0  0  0  0  0  0  0  0  0  0
   -1.1237   -1.3556    2.1515 H   0  0  0  0  0  0  0  0  0  0  0  0
   -2.4309   -0.5943    1.2118 H   0  0  0  0  0  0  0  0  0  0  0  0
  1  4  2  0  0  0  0
  1  7  1  0  0  0  0
  1  8  1  0  0  0  0
  2  3  1  0  0  0  0
  2  7  1  0  0  0  0
  3  8  1  0  0  0  0
  4  5  1  0  0  0  0
  5  6  2  0  0  0  0
  6  7  1  0  0  0  0
  8  9  1  0  0  0  0
  9 10  1  0  0  0  0
  9 11  2  0  0  0  0
  2 12  1  0  0  0  0
  2 13  1  0  0  0  0
  3 14  1  0  0  0  0
  3 15  1  0  0  0  0
M  CHG  2   9   1  10  -1
M  END
$$$$
