eMolecules_6809_5843024
  -OEChem-05261901553D

 16 16  0     0  0  0  0  0  0999 V2000
    0.1824    1.2112   -2.9003 C   0  0  0  0  0  0  0  0  0  0  0  0
   -0.0159    0.2787   -1.0434 C   0  0  0  0  0  0  0  0  0  0  0  0
   -1.2181   -1.7780   -1.8884 C   0  0  0  0  0  0  0  0  0  0  0  0
    0.4726    1.3746   -1.5761 N   0  0  0  0  0  0  0  0  0  0  0  0
   -0.4550    0.0831   -3.2206 N   0  0  0  0  0  0  0  0  0  0  0  0
    0.4724    0.5056    1.3445 N   0  0  0  0  0  0  0  0  0  0  0  0
   -0.5696   -0.4951   -2.0153 N   0  0  0  0  0  0  0  0  0  0  0  0
   -0.0281   -0.1288    0.2456 N   0  0  0  0  0  0  0  0  0  0  0  0
    0.5121    2.1384   -3.8903 N   0  3  0  0  0  0  0  0  0  0  0  0
    1.1170    3.2070   -3.5794 O   0  5  0  0  0  0  0  0  0  0  0  0
    0.3062   -0.1262    2.3927 O   0  0  0  0  0  0  0  0  0  0  0  0
    0.2055    1.9098   -5.0979 O   0  0  0  0  0  0  0  0  0  0  0  0
   -2.2834   -1.6020   -1.7171 H   0  0  0  0  0  0  0  0  0  0  0  0
   -1.0685   -2.3539   -2.8059 H   0  0  0  0  0  0  0  0  0  0  0  0
   -0.7796   -2.3231   -1.0479 H   0  0  0  0  0  0  0  0  0  0  0  0
   -0.4663   -1.0412    0.4854 H   0  0  0  0  0  0  0  0  0  0  0  0
  1  4  1  0  0  0  0
  1  5  2  0  0  0  0
  1  9  1  0  0  0  0
  2  4  2  0  0  0  0
  2  7  1  0  0  0  0
  2  8  1  0  0  0  0
  3  7  1  0  0  0  0
  5  7  1  0  0  0  0
  6  8  1  0  0  0  0
  6 11  2  0  0  0  0
  9 10  1  0  0  0  0
  9 12  2  0  0  0  0
  3 13  1  0  0  0  0
  3 14  1  0  0  0  0
  3 15  1  0  0  0  0
  8 16  1  0  0  0  0
M  CHG  2   9   1  10  -1
M  END
$$$$
