eMolecules_1138_141626
  -OEChem-05261901553D

 24 23  0     0  0  0  0  0  0999 V2000
   -2.1770   -0.8086    3.6725 C   0  0  0  0  0  0  0  0  0  0  0  0
    0.6026    3.6273    5.6480 C   0  0  0  0  0  0  0  0  0  0  0  0
    0.5169    0.8410   -0.0842 C   0  0  0  0  0  0  0  0  0  0  0  0
   -1.4535    0.4309    3.1909 C   0  0  0  0  0  0  0  0  0  0  0  0
    0.9795    2.3587    4.9130 C   0  0  0  0  0  0  0  0  0  0  0  0
    0.4693    1.7792    1.0260 N   0  0  0  0  0  0  0  0  0  0  0  0
    2.3919    0.8010    2.6342 O   0  0  0  0  0  0  0  0  0  0  0  0
   -0.0767    0.1305    3.0346 O   0  0  0  0  0  0  0  0  0  0  0  0
    0.6555    2.5064    3.5408 O   0  0  0  0  0  0  0  0  0  0  0  0
    0.9640    1.2731    2.5249 P   0  0  0  0  0  0  0  0  0  0  0  0
   -2.0774   -1.6238    2.9504 H   0  0  0  0  0  0  0  0  0  0  0  0
   -1.7765   -1.1393    4.6365 H   0  0  0  0  0  0  0  0  0  0  0  0
   -3.2411   -0.5996    3.8248 H   0  0  0  0  0  0  0  0  0  0  0  0
    1.1507    4.4860    5.2505 H   0  0  0  0  0  0  0  0  0  0  0  0
   -0.4713    3.8209    5.5581 H   0  0  0  0  0  0  0  0  0  0  0  0
    0.8206    3.5331    6.7170 H   0  0  0  0  0  0  0  0  0  0  0  0
    1.4625    0.2926   -0.0723 H   0  0  0  0  0  0  0  0  0  0  0  0
    0.4318    1.3751   -1.0344 H   0  0  0  0  0  0  0  0  0  0  0  0
   -0.3060    0.1251   -0.0096 H   0  0  0  0  0  0  0  0  0  0  0  0
   -1.5569    1.2422    3.9175 H   0  0  0  0  0  0  0  0  0  0  0  0
   -1.8542    0.7594    2.2273 H   0  0  0  0  0  0  0  0  0  0  0  0
    0.4278    1.5038    5.3153 H   0  0  0  0  0  0  0  0  0  0  0  0
    2.0529    2.1671    5.0031 H   0  0  0  0  0  0  0  0  0  0  0  0
   -0.4198    2.2774    0.9937 H   0  0  0  0  0  0  0  0  0  0  0  0
  1  4  1  0  0  0  0
  2  5  1  0  0  0  0
  3  6  1  0  0  0  0
  4  8  1  0  0  0  0
  5  9  1  0  0  0  0
  6 10  1  0  0  0  0
  7 10  2  0  0  0  0
  8 10  1  0  0  0  0
  9 10  1  0  0  0  0
  1 11  1  0  0  0  0
  1 12  1  0  0  0  0
  1 13  1  0  0  0  0
  2 14  1  0  0  0  0
  2 15  1  0  0  0  0
  2 16  1  0  0  0  0
  3 17  1  0  0  0  0
  3 18  1  0  0  0  0
  3 19  1  0  0  0  0
  4 20  1  0  0  0  0
  4 21  1  0  0  0  0
  5 22  1  0  0  0  0
  5 23  1  0  0  0  0
  6 24  1  0  0  0  0
M  END
$$$$
