eMolecules_8467_7510020
  -OEChem-05261901553D

 13 12  0     0  0  0  0  0  0999 V2000
    1.7797    0.1102   -1.1878 C   0  0  0  0  0  0  0  0  0  0  0  0
    1.0014   -0.4384   -0.0175 C   0  0  0  0  0  0  0  0  0  0  0  0
    3.0496    0.8614   -0.8703 C   0  0  0  0  0  0  0  0  0  0  0  0
    1.4509   -0.0111   -2.4376 N   0  0  0  0  0  0  0  0  0  0  0  0
    2.3421    0.5880   -3.3189 N   0  0  0  0  0  0  0  0  0  0  0  0
    0.2737    0.2987    0.3335 H   0  0  0  0  0  0  0  0  0  0  0  0
    0.4613   -1.3392   -0.3209 H   0  0  0  0  0  0  0  0  0  0  0  0
    1.6835   -0.6696    0.8051 H   0  0  0  0  0  0  0  0  0  0  0  0
    3.8884    0.1602   -0.8513 H   0  0  0  0  0  0  0  0  0  0  0  0
    2.9535    1.3352    0.1104 H   0  0  0  0  0  0  0  0  0  0  0  0
    3.2443    1.6316   -1.6218 H   0  0  0  0  0  0  0  0  0  0  0  0
    2.2246    0.5794   -4.3228 H   0  0  0  0  0  0  0  0  0  0  0  0
    3.1554    1.0594   -2.9427 H   0  0  0  0  0  0  0  0  0  0  0  0
  1  2  1  0  0  0  0
  1  3  1  0  0  0  0
  1  4  2  0  0  0  0
  4  5  1  0  0  0  0
  2  6  1  0  0  0  0
  2  7  1  0  0  0  0
  2  8  1  0  0  0  0
  3  9  1  0  0  0  0
  3 10  1  0  0  0  0
  3 11  1  0  0  0  0
  5 12  1  0  0  0  0
  5 13  1  0  0  0  0
M  END
$$$$
