eMolecules_8557_7601570
  -OEChem-05261901553D

 23 23  0     0  0  0  0  0  0999 V2000
    1.8851   -1.0363   -0.1124 C   0  0  0  0  0  0  0  0  0  0  0  0
    0.8066   -0.4630    0.5610 C   0  0  0  0  0  0  0  0  0  0  0  0
    2.9210   -1.6309    0.6081 C   0  0  0  0  0  0  0  0  0  0  0  0
    1.7997   -1.0786    2.6757 C   0  0  0  0  0  0  0  0  0  0  0  0
    0.7638   -0.4841    1.9551 C   0  0  0  0  0  0  0  0  0  0  0  0
    2.8783   -1.6520    2.0022 C   0  0  0  0  0  0  0  0  0  0  0  0
    5.2594   -1.0882    3.1407 N   0  0  0  0  0  0  0  0  0  0  0  0
   -0.3344    0.0988    2.6405 N   0  3  0  0  0  0  0  0  0  0  0  0
   -1.2563    0.6279    1.9734 O   0  5  0  0  0  0  0  0  0  0  0  0
   -0.3534    0.0695    3.8949 O   0  0  0  0  0  0  0  0  0  0  0  0
    4.8128   -3.3745    2.0316 O   0  0  0  0  0  0  0  0  0  0  0  0
    3.6645   -2.8191    4.1999 O   0  0  0  0  0  0  0  0  0  0  0  0
    3.9995   -0.1879    5.2006 O   0  0  0  0  0  0  0  0  0  0  0  0
    4.6021    1.3909    3.3356 O   0  0  0  0  0  0  0  0  0  0  0  0
    6.3556    0.5386    4.8793 O   0  0  0  0  0  0  0  0  0  0  0  0
    4.1755   -2.3966    2.9028 S   0  0  0  0  0  0  0  0  0  0  0  0
    4.9196    0.2433    4.1648 S   0  0  0  0  0  0  0  0  0  0  0  0
    1.9186   -1.0200   -1.1980 H   0  0  0  0  0  0  0  0  0  0  0  0
    0.0062   -0.0027   -0.0132 H   0  0  0  0  0  0  0  0  0  0  0  0
    3.7566   -2.0740    0.0729 H   0  0  0  0  0  0  0  0  0  0  0  0
    1.7687   -1.0963    3.7632 H   0  0  0  0  0  0  0  0  0  0  0  0
    5.9771   -0.9450    2.4187 H   0  0  0  0  0  0  0  0  0  0  0  0
    7.1120    0.6802    4.2629 H   0  0  0  0  0  0  0  0  0  0  0  0
  1  2  1  0  0  0  0
  1  3  2  0  0  0  0
  2  5  2  0  0  0  0
  3  6  1  0  0  0  0
  4  5  1  0  0  0  0
  4  6  2  0  0  0  0
  5  8  1  0  0  0  0
  6 16  1  0  0  0  0
  7 16  1  0  0  0  0
  7 17  1  0  0  0  0
  8  9  1  0  0  0  0
  8 10  2  0  0  0  0
 11 16  2  0  0  0  0
 12 16  2  0  0  0  0
 13 17  2  0  0  0  0
 14 17  2  0  0  0  0
 15 17  1  0  0  0  0
  1 18  1  0  0  0  0
  2 19  1  0  0  0  0
  3 20  1  0  0  0  0
  4 21  1  0  0  0  0
  7 22  1  0  0  0  0
 15 23  1  0  0  0  0
M  CHG  2   8   1   9  -1
M  END
$$$$
