eMolecules_7644_6685324
  -OEChem-05261901553D

 30 32  0     0  0  0  0  0  0999 V2000
    5.2426   -5.6997    0.8021 C   0  0  0  0  0  0  0  0  0  0  0  0
    4.5479   -4.5022    0.9728 C   0  0  0  0  0  0  0  0  0  0  0  0
    6.3729   -5.9665    1.5747 C   0  0  0  0  0  0  0  0  0  0  0  0
    6.1140   -3.8384    2.6886 C   0  0  0  0  0  0  0  0  0  0  0  0
   -1.0693   -1.0080   -1.5165 C   0  0  0  0  0  0  0  0  0  0  0  0
    4.9836   -3.5716    1.9161 C   0  0  0  0  0  0  0  0  0  0  0  0
    6.8086   -5.0359    2.5179 C   0  0  0  0  0  0  0  0  0  0  0  0
   -0.7690    0.7189   -0.1866 C   0  0  0  0  0  0  0  0  0  0  0  0
   -0.0941    1.4388    0.8256 C   0  0  0  0  0  0  0  0  0  0  0  0
    0.9984    0.9143    1.4069 C   0  0  0  0  0  0  0  0  0  0  0  0
    1.5428   -0.4324    1.0177 C   0  0  0  0  0  0  0  0  0  0  0  0
    4.2598   -2.3234    2.0946 C   0  0  0  0  0  0  0  0  0  0  0  0
   -2.0235   -0.1353   -1.7665 N   0  0  0  0  0  0  0  0  0  0  0  0
   -1.8347    0.9576   -0.9257 N   0  0  0  0  0  0  0  0  0  0  0  0
    3.2122   -2.0710    1.3814 N   0  0  0  0  0  0  0  0  0  0  0  0
   -0.2829   -0.5023   -0.5451 N   0  0  0  0  0  0  0  0  0  0  0  0
    0.8929   -1.0968    0.0618 N   0  3  0  0  0  0  0  0  0  0  0  0
    2.6245   -0.8659    1.6460 N   0  0  0  0  0  0  0  0  0  0  0  0
    7.9114   -5.2961    3.2719 O   0  0  0  0  0  0  0  0  0  0  0  0
    4.9032   -6.4242    0.0677 H   0  0  0  0  0  0  0  0  0  0  0  0
    3.6679   -4.3047    0.3664 H   0  0  0  0  0  0  0  0  0  0  0  0
    6.9098   -6.9011    1.4371 H   0  0  0  0  0  0  0  0  0  0  0  0
    6.4576   -3.1164    3.4260 H   0  0  0  0  0  0  0  0  0  0  0  0
   -0.9217   -1.9662   -1.9925 H   0  0  0  0  0  0  0  0  0  0  0  0
   -0.4659    2.4123    1.1250 H   0  0  0  0  0  0  0  0  0  0  0  0
    1.5179    1.4656    2.1841 H   0  0  0  0  0  0  0  0  0  0  0  0
    4.6425   -1.6165    2.8541 H   0  0  0  0  0  0  0  0  0  0  0  0
    1.2266   -2.0092   -0.2311 H   0  0  0  0  0  0  0  0  0  0  0  0
    3.0481   -0.2780    2.3657 H   0  0  0  0  0  0  0  0  0  0  0  0
    8.2817   -6.1623    3.0387 H   0  0  0  0  0  0  0  0  0  0  0  0
  1  2  1  0  0  0  0
  1  3  2  0  0  0  0
  2  6  2  0  0  0  0
  3  7  1  0  0  0  0
  4  6  1  0  0  0  0
  4  7  2  0  0  0  0
  5 13  2  0  0  0  0
  5 16  1  0  0  0  0
  6 12  1  0  0  0  0
  7 19  1  0  0  0  0
  8  9  1  0  0  0  0
  8 14  2  0  0  0  0
  8 16  1  0  0  0  0
  9 10  2  0  0  0  0
 10 11  1  0  0  0  0
 11 17  2  0  0  0  0
 11 18  1  0  0  0  0
 12 15  2  0  0  0  0
 13 14  1  0  0  0  0
 15 18  1  0  0  0  0
 16 17  1  0  0  0  0
  1 20  1  0  0  0  0
  2 21  1  0  0  0  0
  3 22  1  0  0  0  0
  4 23  1  0  0  0  0
  5 24  1  0  0  0  0
  9 25  1  0  0  0  0
 10 26  1  0  0  0  0
 12 27  1  0  0  0  0
 17 28  1  0  0  0  0
 18 29  1  0  0  0  0
 19 30  1  0  0  0  0
M  CHG  1  17   1
M  END
$$$$
