eMolecules_3963_2972773
  -OEChem-05261901553D

 47 48  0     0  0  0  0  0  0999 V2000
    1.1936    5.3550   -1.8091 C   0  0  0  0  0  0  0  0  0  0  0  0
    2.1191    4.3439   -2.0493 C   0  0  0  0  0  0  0  0  0  0  0  0
    0.1097    5.1178   -0.9691 C   0  0  0  0  0  0  0  0  0  0  0  0
    2.8040    3.2796    2.0552 C   0  0  0  0  0  0  0  0  0  0  0  0
    0.8806    4.1670    3.8706 C   0  0  0  0  0  0  0  0  0  0  0  0
    1.9359    3.1114   -1.4387 C   0  0  0  0  0  0  0  0  0  0  0  0
   -0.0227    3.8657   -0.3859 C   0  0  0  0  0  0  0  0  0  0  0  0
    1.5984    2.5904    2.1864 C   0  0  0  0  0  0  0  0  0  0  0  0
    3.0480    4.4124    2.8317 C   0  0  0  0  0  0  0  0  0  0  0  0
    0.6367    3.0342    3.0941 C   0  0  0  0  0  0  0  0  0  0  0  0
    2.0863    4.8561    3.7393 C   0  0  0  0  0  0  0  0  0  0  0  0
   -0.1368   -3.3334   -1.9271 C   0  0  0  0  0  0  0  0  0  0  0  0
   -0.0563   -2.8230   -0.6932 C   0  0  0  0  0  0  0  0  0  0  0  0
    1.3658    1.3924    1.3508 C   0  0  0  0  0  0  0  0  0  0  0  0
    0.7145    1.5806    0.0044 C   0  0  0  0  0  0  0  0  0  0  0  0
   -0.0505    0.5603   -0.4857 C   0  0  0  0  0  0  0  0  0  0  0  0
    4.3461    5.1339    2.6741 C   0  0  0  0  0  0  0  0  0  0  0  0
   -0.6625    2.3144    3.2551 C   0  0  0  0  0  0  0  0  0  0  0  0
    2.3251    6.0665    4.5810 C   0  0  0  0  0  0  0  0  0  0  0  0
   -0.9941   -1.7925   -0.1553 C   0  0  0  0  0  0  0  0  0  0  0  0
    0.8832    2.9100   -0.6343 N   0  3  0  0  0  0  0  0  0  0  0  0
   -0.2337   -0.6276    0.2266 N   0  0  0  0  0  0  0  0  0  0  0  0
    1.6647    0.2825    1.7784 O   0  0  0  0  0  0  0  0  0  0  0  0
   -0.8185    0.8038   -2.0819 S   0  0  0  0  0  0  0  0  0  0  0  0
    1.3170    6.3275   -2.2763 H   0  0  0  0  0  0  0  0  0  0  0  0
    2.9682    4.5162   -2.7019 H   0  0  0  0  0  0  0  0  0  0  0  0
   -0.6186    5.8977   -0.7739 H   0  0  0  0  0  0  0  0  0  0  0  0
    3.5555    2.9353    1.3479 H   0  0  0  0  0  0  0  0  0  0  0  0
    0.1310    4.5129    4.5786 H   0  0  0  0  0  0  0  0  0  0  0  0
    2.6228    2.2854   -1.5873 H   0  0  0  0  0  0  0  0  0  0  0  0
   -0.8455    3.6212    0.2770 H   0  0  0  0  0  0  0  0  0  0  0  0
    0.5716   -4.0853   -2.2572 H   0  0  0  0  0  0  0  0  0  0  0  0
   -0.9028   -3.0136   -2.6250 H   0  0  0  0  0  0  0  0  0  0  0  0
    0.7276   -3.1837   -0.0317 H   0  0  0  0  0  0  0  0  0  0  0  0
    4.2591    5.9082    1.9031 H   0  0  0  0  0  0  0  0  0  0  0  0
    4.6520    5.6093    3.6142 H   0  0  0  0  0  0  0  0  0  0  0  0
    5.1505    4.4447    2.3884 H   0  0  0  0  0  0  0  0  0  0  0  0
   -1.4102    2.7224    2.5654 H   0  0  0  0  0  0  0  0  0  0  0  0
   -0.5487    1.2423    3.0538 H   0  0  0  0  0  0  0  0  0  0  0  0
   -1.0429    2.4087    4.2796 H   0  0  0  0  0  0  0  0  0  0  0  0
    2.8030    5.7837    5.5261 H   0  0  0  0  0  0  0  0  0  0  0  0
    2.9709    6.7873    4.0646 H   0  0  0  0  0  0  0  0  0  0  0  0
    1.3845    6.5846    4.8060 H   0  0  0  0  0  0  0  0  0  0  0  0
   -1.5082   -2.1845    0.7277 H   0  0  0  0  0  0  0  0  0  0  0  0
   -1.7508   -1.4947   -0.8881 H   0  0  0  0  0  0  0  0  0  0  0  0
    0.2341   -0.6855    1.1258 H   0  0  0  0  0  0  0  0  0  0  0  0
   -0.3682    2.0369   -2.3445 H   0  0  0  0  0  0  0  0  0  0  0  0
  1  2  1  0  0  0  0
  1  3  2  0  0  0  0
  2  6  2  0  0  0  0
  3  7  1  0  0  0  0
  4  8  2  0  0  0  0
  4  9  1  0  0  0  0
  5 10  2  0  0  0  0
  5 11  1  0  0  0  0
  6 21  1  0  0  0  0
  7 21  2  0  0  0  0
  8 10  1  0  0  0  0
  8 14  1  0  0  0  0
  9 11  2  0  0  0  0
  9 17  1  0  0  0  0
 10 18  1  0  0  0  0
 11 19  1  0  0  0  0
 12 13  2  0  0  0  0
 13 20  1  0  0  0  0
 14 15  1  0  0  0  0
 14 23  2  0  0  0  0
 15 16  2  0  0  0  0
 15 21  1  0  0  0  0
 16 22  1  0  0  0  0
 16 24  1  0  0  0  0
 20 22  1  0  0  0  0
  1 25  1  0  0  0  0
  2 26  1  0  0  0  0
  3 27  1  0  0  0  0
  4 28  1  0  0  0  0
  5 29  1  0  0  0  0
  6 30  1  0  0  0  0
  7 31  1  0  0  0  0
 12 32  1  0  0  0  0
 12 33  1  0  0  0  0
 13 34  1  0  0  0  0
 17 35  1  0  0  0  0
 17 36  1  0  0  0  0
 17 37  1  0  0  0  0
 18 38  1  0  0  0  0
 18 39  1  0  0  0  0
 18 40  1  0  0  0  0
 19 41  1  0  0  0  0
 19 42  1  0  0  0  0
 19 43  1  0  0  0  0
 20 44  1  0  0  0  0
 20 45  1  0  0  0  0
 22 46  1  0  0  0  0
 24 47  1  0  0  0  0
M  CHG  1  21   1
M  END
$$$$
