eMolecules_6959_5994492
  -OEChem-05261901553D

 26 26  0     0  0  0  0  0  0999 V2000
   -3.6302   -0.0006   -3.6048 C   0  0  0  0  0  0  0  0  0  0  0  0
   -2.8736   -1.1458   -3.3565 C   0  0  0  0  0  0  0  0  0  0  0  0
   -3.4767    1.1255   -2.7961 C   0  0  0  0  0  0  0  0  0  0  0  0
   -1.9637   -1.1650   -2.2995 C   0  0  0  0  0  0  0  0  0  0  0  0
   -2.5668    1.1064   -1.7391 C   0  0  0  0  0  0  0  0  0  0  0  0
   -1.8103   -0.0389   -1.4907 C   0  0  0  0  0  0  0  0  0  0  0  0
   -1.0651   -1.4400    1.1390 C   0  0  0  0  0  0  0  0  0  0  0  0
   -0.5679    1.5644    0.8831 C   0  0  0  0  0  0  0  0  0  0  0  0
    1.1583   -0.4227   -0.7117 C   0  0  0  0  0  0  0  0  0  0  0  0
    1.5389    0.6374   -1.6351 N   0  0  0  0  0  0  0  0  0  0  0  0
   -0.5694   -0.0649   -0.0491 Si  0  0  0  0  0  0  0  0  0  0  0  0
   -4.3388    0.0146   -4.4277 H   0  0  0  0  0  0  0  0  0  0  0  0
   -2.9937   -2.0225   -3.9864 H   0  0  0  0  0  0  0  0  0  0  0  0
   -4.0658    2.0173   -2.9897 H   0  0  0  0  0  0  0  0  0  0  0  0
   -1.3861   -2.0705   -2.1277 H   0  0  0  0  0  0  0  0  0  0  0  0
   -2.4668    1.9976   -1.1236 H   0  0  0  0  0  0  0  0  0  0  0  0
   -0.3781   -1.4952    1.9890 H   0  0  0  0  0  0  0  0  0  0  0  0
   -2.0720   -1.2767    1.5352 H   0  0  0  0  0  0  0  0  0  0  0  0
   -1.0576   -2.4147    0.6414 H   0  0  0  0  0  0  0  0  0  0  0  0
    0.1469    1.5456    1.7115 H   0  0  0  0  0  0  0  0  0  0  0  0
   -0.2941    2.3958    0.2264 H   0  0  0  0  0  0  0  0  0  0  0  0
   -1.5556    1.7820    1.3011 H   0  0  0  0  0  0  0  0  0  0  0  0
    1.1864   -1.3923   -1.2188 H   0  0  0  0  0  0  0  0  0  0  0  0
    1.8684   -0.4553    0.1206 H   0  0  0  0  0  0  0  0  0  0  0  0
    0.9236    0.6272   -2.4482 H   0  0  0  0  0  0  0  0  0  0  0  0
    2.4744    0.4492   -1.9941 H   0  0  0  0  0  0  0  0  0  0  0  0
  1  2  1  0  0  0  0
  1  3  2  0  0  0  0
  2  4  2  0  0  0  0
  3  5  1  0  0  0  0
  4  6  1  0  0  0  0
  5  6  2  0  0  0  0
  6 11  1  0  0  0  0
  7 11  1  0  0  0  0
  8 11  1  0  0  0  0
  9 10  1  0  0  0  0
  9 11  1  0  0  0  0
  1 12  1  0  0  0  0
  2 13  1  0  0  0  0
  3 14  1  0  0  0  0
  4 15  1  0  0  0  0
  5 16  1  0  0  0  0
  7 17  1  0  0  0  0
  7 18  1  0  0  0  0
  7 19  1  0  0  0  0
  8 20  1  0  0  0  0
  8 21  1  0  0  0  0
  8 22  1  0  0  0  0
  9 23  1  0  0  0  0
  9 24  1  0  0  0  0
 10 25  1  0  0  0  0
 10 26  1  0  0  0  0
M  END
$$$$
