eMolecules_2350_1356076
  -OEChem-05261901553D

 11 11  0     0  0  0  0  0  0999 V2000
    0.5219    0.9077    0.4147 C   0  0  0  0  0  0  0  0  0  0  0  0
   -0.9182    0.6009    0.6512 C   0  0  0  0  0  0  0  0  0  0  0  0
   -0.9640   -0.7997    0.0815 C   0  0  0  0  0  0  0  0  0  0  0  0
    1.1446    0.0949   -0.3710 N   0  0  0  0  0  0  0  0  0  0  0  0
    0.2156   -0.8038   -0.7764 N   0  0  0  0  0  0  0  0  0  0  0  0
    0.9918    1.7867    0.8780 H   0  0  0  0  0  0  0  0  0  0  0  0
   -1.1547    0.6405    1.7165 H   0  0  0  0  0  0  0  0  0  0  0  0
   -1.5311    1.3165    0.0961 H   0  0  0  0  0  0  0  0  0  0  0  0
   -0.8570   -1.5435    0.8790 H   0  0  0  0  0  0  0  0  0  0  0  0
   -1.8846   -1.0010   -0.4725 H   0  0  0  0  0  0  0  0  0  0  0  0
    0.6181   -1.7319   -0.8860 H   0  0  0  0  0  0  0  0  0  0  0  0
  1  2  1  0  0  0  0
  1  4  2  0  0  0  0
  2  3  1  0  0  0  0
  3  5  1  0  0  0  0
  4  5  1  0  0  0  0
  1  6  1  0  0  0  0
  2  7  1  0  0  0  0
  2  8  1  0  0  0  0
  3  9  1  0  0  0  0
  3 10  1  0  0  0  0
  5 11  1  0  0  0  0
M  END
$$$$
