eMolecules_1008_8629
  -OEChem-05261901553D

 11 11  0     0  0  0  0  0  0999 V2000
   -0.5242   -1.1177    1.0735 C   0  0  0  0  0  0  0  0  0  0  0  0
   -1.4222   -0.1674    0.7910 C   0  0  0  0  0  0  0  0  0  0  0  0
    0.7030   -0.8367    0.3054 C   0  0  0  0  0  0  0  0  0  0  0  0
   -0.8154    0.7701   -0.1721 C   0  0  0  0  0  0  0  0  0  0  0  0
    0.4459    0.3189   -0.3446 N   0  0  0  0  0  0  0  0  0  0  0  0
    1.7029   -1.5314    0.3157 O   0  0  0  0  0  0  0  0  0  0  0  0
   -1.3823    1.7336   -0.6547 O   0  0  0  0  0  0  0  0  0  0  0  0
    1.3826    0.9760   -1.1119 O   0  0  0  0  0  0  0  0  0  0  0  0
   -0.6509   -1.9583    1.7345 H   0  0  0  0  0  0  0  0  0  0  0  0
   -2.4240   -0.0820    1.1768 H   0  0  0  0  0  0  0  0  0  0  0  0
    0.8965    1.7677   -1.4434 H   0  0  0  0  0  0  0  0  0  0  0  0
  1  2  2  0  0  0  0
  1  3  1  0  0  0  0
  2  4  1  0  0  0  0
  3  5  1  0  0  0  0
  3  6  2  0  0  0  0
  4  5  1  0  0  0  0
  4  7  2  0  0  0  0
  5  8  1  0  0  0  0
  1  9  1  0  0  0  0
  2 10  1  0  0  0  0
  8 11  1  0  0  0  0
M  END
$$$$
