eMolecules_6388_5418279
  -OEChem-05261901553D

 22 22  0     0  0  0  0  0  0999 V2000
    1.3879   -0.0684    1.6522 C   0  0  0  0  0  0  0  0  0  0  0  0
    1.6520   -0.6227    2.8997 C   0  0  0  0  0  0  0  0  0  0  0  0
   -0.6317   -1.3224    1.5803 C   0  0  0  0  0  0  0  0  0  0  0  0
    0.2265   -0.4197    0.9733 C   0  0  0  0  0  0  0  0  0  0  0  0
    0.7299   -1.5161    3.4206 C   0  0  0  0  0  0  0  0  0  0  0  0
   -0.0837    0.1554   -0.3629 C   0  0  0  0  0  0  0  0  0  0  0  0
    0.4684   -4.4124    4.9585 C   0  0  0  0  0  0  0  0  0  0  0  0
    0.1389   -3.0112    5.3469 C   0  0  0  0  0  0  0  0  0  0  0  0
   -0.4092   -1.8816    2.7908 N   0  0  0  0  0  0  0  0  0  0  0  0
    1.0132   -2.0716    4.6932 N   0  0  0  0  0  0  0  0  0  0  0  0
    2.6002   -1.9855    5.3170 Cl  0  0  0  0  0  0  0  0  0  0  0  0
    2.0919    0.6355    1.2167 H   0  0  0  0  0  0  0  0  0  0  0  0
    2.5563   -0.3543    3.4364 H   0  0  0  0  0  0  0  0  0  0  0  0
   -1.5532   -1.6346    1.0987 H   0  0  0  0  0  0  0  0  0  0  0  0
    0.3346   -0.4735   -1.1603 H   0  0  0  0  0  0  0  0  0  0  0  0
   -1.1679    0.2392   -0.5231 H   0  0  0  0  0  0  0  0  0  0  0  0
    0.3291    1.1685   -0.4706 H   0  0  0  0  0  0  0  0  0  0  0  0
    0.3579   -4.5547    3.8780 H   0  0  0  0  0  0  0  0  0  0  0  0
    1.4916   -4.6689    5.2537 H   0  0  0  0  0  0  0  0  0  0  0  0
   -0.2139   -5.1076    5.4623 H   0  0  0  0  0  0  0  0  0  0  0  0
    0.2513   -2.8762    6.4268 H   0  0  0  0  0  0  0  0  0  0  0  0
   -0.8884   -2.7619    5.0655 H   0  0  0  0  0  0  0  0  0  0  0  0
  1  2  2  0  0  0  0
  1  4  1  0  0  0  0
  2  5  1  0  0  0  0
  3  4  2  0  0  0  0
  3  9  1  0  0  0  0
  4  6  1  0  0  0  0
  5  9  2  0  0  0  0
  5 10  1  0  0  0  0
  7  8  1  0  0  0  0
  8 10  1  0  0  0  0
 10 11  1  0  0  0  0
  1 12  1  0  0  0  0
  2 13  1  0  0  0  0
  3 14  1  0  0  0  0
  6 15  1  0  0  0  0
  6 16  1  0  0  0  0
  6 17  1  0  0  0  0
  7 18  1  0  0  0  0
  7 19  1  0  0  0  0
  7 20  1  0  0  0  0
  8 21  1  0  0  0  0
  8 22  1  0  0  0  0
M  END
$$$$
