eMolecules_1104_106752
  -OEChem-05261901553D

 28 29  0     0  0  0  0  0  0999 V2000
    3.1268   -5.0590    4.3898 C   0  0  0  0  0  0  0  0  0  0  0  0
    3.6250   -4.2237    3.3901 C   0  0  0  0  0  0  0  0  0  0  0  0
    2.1736   -4.5796    5.2884 C   0  0  0  0  0  0  0  0  0  0  0  0
    3.1702   -2.9090    3.2888 C   0  0  0  0  0  0  0  0  0  0  0  0
    1.7187   -3.2649    5.1871 C   0  0  0  0  0  0  0  0  0  0  0  0
    0.3451    0.7858    4.6728 C   0  0  0  0  0  0  0  0  0  0  0  0
    1.7545   -0.2304    6.3515 C   0  0  0  0  0  0  0  0  0  0  0  0
   -0.1230    1.6983    5.6182 C   0  0  0  0  0  0  0  0  0  0  0  0
    1.2865    0.6822    7.2969 C   0  0  0  0  0  0  0  0  0  0  0  0
    2.2170   -2.4295    4.1874 C   0  0  0  0  0  0  0  0  0  0  0  0
    1.2838   -0.1786    5.0394 C   0  0  0  0  0  0  0  0  0  0  0  0
    0.3477    1.6466    6.9302 C   0  0  0  0  0  0  0  0  0  0  0  0
    1.7568   -1.1003    4.0852 N   0  0  0  0  0  0  0  0  0  0  0  0
    0.7653    2.9032    9.1628 O   0  0  0  0  0  0  0  0  0  0  0  0
   -0.6865    3.9637    7.3846 O   0  0  0  0  0  0  0  0  0  0  0  0
   -1.5486    2.0766    8.7850 O   0  0  0  0  0  0  0  0  0  0  0  0
   -0.2381    2.7880    8.1144 S   0  0  0  0  0  0  0  0  0  0  0  0
    3.4812   -6.0827    4.4687 H   0  0  0  0  0  0  0  0  0  0  0  0
    4.3671   -4.5970    2.6907 H   0  0  0  0  0  0  0  0  0  0  0  0
    1.7857   -5.2303    6.0669 H   0  0  0  0  0  0  0  0  0  0  0  0
    3.5648   -2.2661    2.5063 H   0  0  0  0  0  0  0  0  0  0  0  0
    0.9755   -2.9024    5.8928 H   0  0  0  0  0  0  0  0  0  0  0  0
   -0.0287    0.8350    3.6533 H   0  0  0  0  0  0  0  0  0  0  0  0
    2.4869   -0.9773    6.6476 H   0  0  0  0  0  0  0  0  0  0  0  0
   -0.8543    2.4452    5.3214 H   0  0  0  0  0  0  0  0  0  0  0  0
    1.6600    0.6324    8.3163 H   0  0  0  0  0  0  0  0  0  0  0  0
    1.7686   -0.7377    3.1365 H   0  0  0  0  0  0  0  0  0  0  0  0
   -1.3629    1.2619    9.3087 H   0  0  0  0  0  0  0  0  0  0  0  0
  1  2  1  0  0  0  0
  1  3  2  0  0  0  0
  2  4  2  0  0  0  0
  3  5  1  0  0  0  0
  4 10  1  0  0  0  0
  5 10  2  0  0  0  0
  6  8  2  0  0  0  0
  6 11  1  0  0  0  0
  7  9  1  0  0  0  0
  7 11  2  0  0  0  0
  8 12  1  0  0  0  0
  9 12  2  0  0  0  0
 10 13  1  0  0  0  0
 11 13  1  0  0  0  0
 12 17  1  0  0  0  0
 14 17  2  0  0  0  0
 15 17  2  0  0  0  0
 16 17  1  0  0  0  0
  1 18  1  0  0  0  0
  2 19  1  0  0  0  0
  3 20  1  0  0  0  0
  4 21  1  0  0  0  0
  5 22  1  0  0  0  0
  6 23  1  0  0  0  0
  7 24  1  0  0  0  0
  8 25  1  0  0  0  0
  9 26  1  0  0  0  0
 13 27  1  0  0  0  0
 16 28  1  0  0  0  0
M  END
$$$$
