eMolecules_4639_3658839
  -OEChem-05261901553D

 18 19  0     0  0  0  0  0  0999 V2000
    0.1805   -1.9549    0.8885 C   0  0  0  0  0  0  0  0  0  0  0  0
    0.5442   -0.9402   -0.0007 C   0  0  0  0  0  0  0  0  0  0  0  0
    0.8734   -3.1675    0.8955 C   0  0  0  0  0  0  0  0  0  0  0  0
    1.6068   -1.1282   -0.8839 C   0  0  0  0  0  0  0  0  0  0  0  0
    1.9277   -3.3615    0.0034 C   0  0  0  0  0  0  0  0  0  0  0  0
    2.2937   -2.3388   -0.8641 C   0  0  0  0  0  0  0  0  0  0  0  0
    2.6506   -4.6394    0.0223 C   0  0  0  0  0  0  0  0  0  0  0  0
    3.4455   -5.0947   -0.8956 N   0  0  0  0  0  0  0  0  0  0  0  0
    3.6018   -4.2847   -2.0930 N   0  0  0  0  0  0  0  0  0  0  0  0
    4.8361   -2.1957   -1.2268 O   0  0  0  0  0  0  0  0  0  0  0  0
    3.2947   -2.0167   -3.2284 O   0  0  0  0  0  0  0  0  0  0  0  0
    3.6441   -2.5962   -1.9466 S   0  0  0  0  0  0  0  0  0  0  0  0
   -0.6454   -1.7999    1.5771 H   0  0  0  0  0  0  0  0  0  0  0  0
    0.0001    0.0001    0.0001 H   0  0  0  0  0  0  0  0  0  0  0  0
    0.5758   -3.9466    1.5917 H   0  0  0  0  0  0  0  0  0  0  0  0
    1.8882   -0.3283   -1.5618 H   0  0  0  0  0  0  0  0  0  0  0  0
    2.4919   -5.2807    0.9061 H   0  0  0  0  0  0  0  0  0  0  0  0
    3.2295   -4.7071   -2.9523 H   0  0  0  0  0  0  0  0  0  0  0  0
  1  2  1  0  0  0  0
  1  3  2  0  0  0  0
  2  4  2  0  0  0  0
  3  5  1  0  0  0  0
  4  6  1  0  0  0  0
  5  6  2  0  0  0  0
  5  7  1  0  0  0  0
  6 12  1  0  0  0  0
  7  8  2  0  0  0  0
  8  9  1  0  0  0  0
  9 12  1  0  0  0  0
 10 12  2  0  0  0  0
 11 12  2  0  0  0  0
  1 13  1  0  0  0  0
  2 14  1  0  0  0  0
  3 15  1  0  0  0  0
  4 16  1  0  0  0  0
  7 17  1  0  0  0  0
  9 18  1  0  0  0  0
M  END
$$$$
