eMolecules_1178_181053
  -OEChem-05261901543D

 26 26  0     1  0  0  0  0  0999 V2000
   -0.4664    5.1567    0.9108 C   0  0  0  0  0  0  0  0  0  0  0  0
   -0.3151    3.9771    1.6396 C   0  0  0  0  0  0  0  0  0  0  0  0
   -0.8983    5.1072   -0.4146 C   0  0  0  0  0  0  0  0  0  0  0  0
   -0.5956    2.7479    1.0430 C   0  0  0  0  0  0  0  0  0  0  0  0
   -1.1788    3.8780   -1.0112 C   0  0  0  0  0  0  0  0  0  0  0  0
   -1.0275    2.6983   -0.2824 C   0  0  0  0  0  0  0  0  0  0  0  0
    0.9267    0.9818   -1.7848 C   0  0  0  0  0  0  0  0  0  0  0  0
   -2.7952   -0.1128    0.7716 C   0  0  0  0  0  0  0  0  0  0  0  0
   -0.2059    0.4467   -0.9763 C   0  0  0  0  0  0  0  0  0  0  0  0
   -1.3183    1.4247   -0.9005 N   0  0  1  0  0  0  0  0  0  0  0  0
   -3.1847   -0.1199   -1.8016 O   0  0  0  0  0  0  0  0  0  0  0  0
   -3.8444    1.9206   -0.4877 O   0  0  0  0  0  0  0  0  0  0  0  0
   -2.9218    0.8285   -0.7347 S   0  0  0  0  0  0  0  0  0  0  0  0
   -0.2488    6.1141    1.3757 H   0  0  0  0  0  0  0  0  0  0  0  0
    0.0217    4.0164    2.6715 H   0  0  0  0  0  0  0  0  0  0  0  0
   -1.0154    6.0261   -0.9816 H   0  0  0  0  0  0  0  0  0  0  0  0
   -0.4735    1.8346    1.6198 H   0  0  0  0  0  0  0  0  0  0  0  0
   -1.5141    3.8508   -2.0449 H   0  0  0  0  0  0  0  0  0  0  0  0
    0.6069    1.1987   -2.8098 H   0  0  0  0  0  0  0  0  0  0  0  0
    1.3325    1.8933   -1.3326 H   0  0  0  0  0  0  0  0  0  0  0  0
    1.7324    0.2395   -1.8322 H   0  0  0  0  0  0  0  0  0  0  0  0
   -3.7713   -0.5504    0.9872 H   0  0  0  0  0  0  0  0  0  0  0  0
   -2.0489   -0.8954    0.6269 H   0  0  0  0  0  0  0  0  0  0  0  0
   -2.4924    0.5611    1.5743 H   0  0  0  0  0  0  0  0  0  0  0  0
    0.1203    0.2322    0.0458 H   0  0  0  0  0  0  0  0  0  0  0  0
   -0.5997   -0.4722   -1.4207 H   0  0  0  0  0  0  0  0  0  0  0  0
  1  2  1  0  0  0  0
  1  3  2  0  0  0  0
  2  4  2  0  0  0  0
  3  5  1  0  0  0  0
  4  6  1  0  0  0  0
  5  6  2  0  0  0  0
  6 10  1  0  0  0  0
  7  9  1  0  0  0  0
  8 13  1  0  0  0  0
  9 10  1  0  0  0  0
 10 13  1  0  0  0  0
 11 13  2  0  0  0  0
 12 13  2  0  0  0  0
  1 14  1  0  0  0  0
  2 15  1  0  0  0  0
  3 16  1  0  0  0  0
  4 17  1  0  0  0  0
  5 18  1  0  0  0  0
  7 19  1  0  0  0  0
  7 20  1  0  0  0  0
  7 21  1  0  0  0  0
  8 22  1  0  0  0  0
  8 23  1  0  0  0  0
  8 24  1  0  0  0  0
  9 25  1  0  0  0  0
  9 26  1  0  0  0  0
M  END
$$$$
