eMolecules_4636_3656102
  -OEChem-05261901553D

 31 32  0     1  0  0  0  0  0999 V2000
   -2.7997   -4.0437    0.7322 C   0  0  0  0  0  0  0  0  0  0  0  0
   -3.6111   -2.9654    1.0848 C   0  0  0  0  0  0  0  0  0  0  0  0
   -1.5237   -4.1657    1.2824 C   0  0  0  0  0  0  0  0  0  0  0  0
    1.8720   -1.0603   -0.1130 C   0  0  0  0  0  0  0  0  0  0  0  0
    2.8914   -1.6280    2.0026 C   0  0  0  0  0  0  0  0  0  0  0  0
   -3.1466   -2.0090    1.9876 C   0  0  0  0  0  0  0  0  0  0  0  0
   -1.0592   -3.2092    2.1852 C   0  0  0  0  0  0  0  0  0  0  0  0
    0.7935   -0.4870    0.5605 C   0  0  0  0  0  0  0  0  0  0  0  0
    1.8128   -1.0547    2.6761 C   0  0  0  0  0  0  0  0  0  0  0  0
    2.9210   -1.6308    0.6081 C   0  0  0  0  0  0  0  0  0  0  0  0
   -1.8706   -2.1308    2.5378 C   0  0  0  0  0  0  0  0  0  0  0  0
    0.7638   -0.4841    1.9551 C   0  0  0  0  0  0  0  0  0  0  0  0
    4.0740   -2.2446   -0.1117 C   0  0  0  0  0  0  0  0  0  0  0  0
   -1.3889   -1.1387    3.4745 N   0  0  2  0  0  0  0  0  0  0  0  0
   -0.0397    1.0352    3.8894 O   0  0  0  0  0  0  0  0  0  0  0  0
   -1.4559    0.8786    1.8208 O   0  0  0  0  0  0  0  0  0  0  0  0
   -2.5148   -0.6068    4.1851 O   0  0  0  0  0  0  0  0  0  0  0  0
   -0.5850    0.2354    2.7982 S   0  0  0  0  0  0  0  0  0  0  0  0
   -3.1617   -4.7891    0.0298 H   0  0  0  0  0  0  0  0  0  0  0  0
   -4.6044   -2.8709    0.6557 H   0  0  0  0  0  0  0  0  0  0  0  0
   -0.8922   -5.0053    1.0070 H   0  0  0  0  0  0  0  0  0  0  0  0
    1.8863   -1.0581   -1.1996 H   0  0  0  0  0  0  0  0  0  0  0  0
    3.7040   -2.0706    2.5727 H   0  0  0  0  0  0  0  0  0  0  0  0
   -3.7870   -1.1721    2.2549 H   0  0  0  0  0  0  0  0  0  0  0  0
   -0.0629   -3.3135    2.6075 H   0  0  0  0  0  0  0  0  0  0  0  0
   -0.0189   -0.0456   -0.0109 H   0  0  0  0  0  0  0  0  0  0  0  0
    1.7997   -1.0583    3.7628 H   0  0  0  0  0  0  0  0  0  0  0  0
    4.8563   -1.4962   -0.2880 H   0  0  0  0  0  0  0  0  0  0  0  0
    4.5079   -3.0726    0.4637 H   0  0  0  0  0  0  0  0  0  0  0  0
    3.7642   -2.6589   -1.0801 H   0  0  0  0  0  0  0  0  0  0  0  0
   -2.1166    0.0446    4.7877 H   0  0  0  0  0  0  0  0  0  0  0  0
  1  2  1  0  0  0  0
  1  3  2  0  0  0  0
  2  6  2  0  0  0  0
  3  7  1  0  0  0  0
  4  8  2  0  0  0  0
  4 10  1  0  0  0  0
  5  9  1  0  0  0  0
  5 10  2  0  0  0  0
  6 11  1  0  0  0  0
  7 11  2  0  0  0  0
  8 12  1  0  0  0  0
  9 12  2  0  0  0  0
 10 13  1  0  0  0  0
 11 14  1  0  0  0  0
 12 18  1  0  0  0  0
 14 17  1  0  0  0  0
 14 18  1  0  0  0  0
 15 18  2  0  0  0  0
 16 18  2  0  0  0  0
  1 19  1  0  0  0  0
  2 20  1  0  0  0  0
  3 21  1  0  0  0  0
  4 22  1  0  0  0  0
  5 23  1  0  0  0  0
  6 24  1  0  0  0  0
  7 25  1  0  0  0  0
  8 26  1  0  0  0  0
  9 27  1  0  0  0  0
 13 28  1  0  0  0  0
 13 29  1  0  0  0  0
 13 30  1  0  0  0  0
 17 31  1  0  0  0  0
M  END
$$$$
