eMolecules_7568_6607260
  -OEChem-05261901553D

 29 29  0     1  0  0  0  0  0999 V2000
   -4.2878   -2.9085    2.4565 C   0  0  0  0  0  0  0  0  0  0  0  0
   -3.0120   -3.4147    2.7044 C   0  0  0  0  0  0  0  0  0  0  0  0
   -4.5498   -1.5522    2.6502 C   0  0  0  0  0  0  0  0  0  0  0  0
   -1.9981   -2.5647    3.1461 C   0  0  0  0  0  0  0  0  0  0  0  0
   -3.5360   -0.7021    3.0919 C   0  0  0  0  0  0  0  0  0  0  0  0
   -2.2601   -1.2083    3.3399 C   0  0  0  0  0  0  0  0  0  0  0  0
    1.8520   -1.5887    1.3989 C   0  0  0  0  0  0  0  0  0  0  0  0
   -0.3104   -0.3869    0.9889 C   0  0  0  0  0  0  0  0  0  0  0  0
    1.6297    0.8304    2.0099 C   0  0  0  0  0  0  0  0  0  0  0  0
    0.8955   -0.5127    1.9258 C   0  0  0  0  0  0  0  0  0  0  0  0
    0.4313   -0.8895    3.2486 N   0  0  1  0  0  0  0  0  0  0  0  0
   -0.9514   -0.2195    5.3513 O   0  0  0  0  0  0  0  0  0  0  0  0
   -1.1582    1.1558    3.2597 O   0  0  0  0  0  0  0  0  0  0  0  0
    1.4416   -1.0320    4.1841 F   0  0  0  0  0  0  0  0  0  0  0  0
   -0.9748   -0.1313    3.9033 S   0  0  0  0  0  0  0  0  0  0  0  0
   -5.0779   -3.5700    2.1132 H   0  0  0  0  0  0  0  0  0  0  0  0
   -2.8078   -4.4708    2.5548 H   0  0  0  0  0  0  0  0  0  0  0  0
   -5.5435   -1.1586    2.4578 H   0  0  0  0  0  0  0  0  0  0  0  0
   -1.0078   -2.9696    3.3372 H   0  0  0  0  0  0  0  0  0  0  0  0
   -3.7515    0.3524    3.2407 H   0  0  0  0  0  0  0  0  0  0  0  0
    2.7247   -1.6978    2.0534 H   0  0  0  0  0  0  0  0  0  0  0  0
    1.3574   -2.5640    1.3323 H   0  0  0  0  0  0  0  0  0  0  0  0
    2.2257   -1.3306    0.4012 H   0  0  0  0  0  0  0  0  0  0  0  0
   -1.0100    0.3780    1.3455 H   0  0  0  0  0  0  0  0  0  0  0  0
   -0.8652   -1.3305    0.9296 H   0  0  0  0  0  0  0  0  0  0  0  0
   -0.0005   -0.1136   -0.0259 H   0  0  0  0  0  0  0  0  0  0  0  0
    0.9676    1.6197    2.3846 H   0  0  0  0  0  0  0  0  0  0  0  0
    2.4956    0.7705    2.6785 H   0  0  0  0  0  0  0  0  0  0  0  0
    1.9873    1.1487    1.0238 H   0  0  0  0  0  0  0  0  0  0  0  0
  1  2  1  0  0  0  0
  1  3  2  0  0  0  0
  2  4  2  0  0  0  0
  3  5  1  0  0  0  0
  4  6  1  0  0  0  0
  5  6  2  0  0  0  0
  6 15  1  0  0  0  0
  7 10  1  0  0  0  0
  8 10  1  0  0  0  0
  9 10  1  0  0  0  0
 10 11  1  0  0  0  0
 11 14  1  0  0  0  0
 11 15  1  0  0  0  0
 12 15  2  0  0  0  0
 13 15  2  0  0  0  0
  1 16  1  0  0  0  0
  2 17  1  0  0  0  0
  3 18  1  0  0  0  0
  4 19  1  0  0  0  0
  5 20  1  0  0  0  0
  7 21  1  0  0  0  0
  7 22  1  0  0  0  0
  7 23  1  0  0  0  0
  8 24  1  0  0  0  0
  8 25  1  0  0  0  0
  8 26  1  0  0  0  0
  9 27  1  0  0  0  0
  9 28  1  0  0  0  0
  9 29  1  0  0  0  0
M  END
$$$$
