eMolecules_5697_4720620
  -OEChem-05261901553D

  8  7  0     0  0  0  0  0  0999 V2000
   -0.2865   -1.6647    2.1022 C   0  0  0  0  0  0  0  0  0  0  0  0
    0.9589   -0.3194    0.4179 C   0  0  0  0  0  0  0  0  0  0  0  0
   -1.2021   -2.3118    2.4001 N   0  0  0  0  0  0  0  0  0  0  0  0
    0.7768   -0.9152    1.7590 N   0  0  0  0  0  0  0  0  0  0  0  0
    1.1090   -1.1066   -0.3257 H   0  0  0  0  0  0  0  0  0  0  0  0
    1.8307    0.3404    0.4126 H   0  0  0  0  0  0  0  0  0  0  0  0
    0.0766    0.2634    0.1402 H   0  0  0  0  0  0  0  0  0  0  0  0
    1.6699   -1.0304    2.2575 H   0  0  0  0  0  0  0  0  0  0  0  0
  1  3  3  0  0  0  0
  1  4  1  0  0  0  0
  2  4  1  0  0  0  0
  2  5  1  0  0  0  0
  2  6  1  0  0  0  0
  2  7  1  0  0  0  0
  4  8  1  0  0  0  0
M  END
$$$$
