eMolecules_8891_7939463
  -OEChem-05261901553D

 35 35  0     1  0  0  0  0  0999 V2000
    3.3824    2.1081   -3.5737 C   0  0  0  0  0  0  0  0  0  0  0  0
    2.5878    0.4272   -5.1164 C   0  0  0  0  0  0  0  0  0  0  0  0
    2.8127    1.4039   -2.5130 C   0  0  0  0  0  0  0  0  0  0  0  0
    2.0181   -0.2771   -4.0557 C   0  0  0  0  0  0  0  0  0  0  0  0
    3.2698    1.6198   -4.8755 C   0  0  0  0  0  0  0  0  0  0  0  0
    2.1306    0.2113   -2.7539 C   0  0  0  0  0  0  0  0  0  0  0  0
   -1.6596    0.7180   -2.5399 C   0  0  0  0  0  0  0  0  0  0  0  0
   -0.7335    0.4427   -1.6040 C   0  0  0  0  0  0  0  0  0  0  0  0
    3.8782    2.3723   -6.0103 C   0  0  0  0  0  0  0  0  0  0  0  0
   -0.5324    1.4123   -0.4660 C   0  0  0  0  0  0  0  0  0  0  0  0
    3.1400   -2.2299   -1.0145 C   0  0  0  0  0  0  0  0  0  0  0  0
    2.4536   -0.9656   -0.6235 C   0  0  0  0  0  0  0  0  0  0  0  0
    0.1139   -0.8322   -1.6037 C   0  0  0  0  0  0  0  0  0  0  0  0
    1.5597   -0.4976   -1.6880 N   0  0  3  0  0  0  0  0  0  0  0  0
   -0.2864   -1.7125   -2.6591 O   0  0  0  0  0  0  0  0  0  0  0  0
   -0.2065   -1.5162   -0.3824 O   0  0  0  0  0  0  0  0  0  0  0  0
    3.9111    3.0369   -3.3770 H   0  0  0  0  0  0  0  0  0  0  0  0
    2.4936    0.0400   -6.1274 H   0  0  0  0  0  0  0  0  0  0  0  0
    2.9050    1.7941   -1.5027 H   0  0  0  0  0  0  0  0  0  0  0  0
    1.4883   -1.2049   -4.2551 H   0  0  0  0  0  0  0  0  0  0  0  0
   -1.8351    0.0465   -3.3745 H   0  0  0  0  0  0  0  0  0  0  0  0
   -2.2686    1.6142   -2.5061 H   0  0  0  0  0  0  0  0  0  0  0  0
    4.9097    2.0399   -6.1797 H   0  0  0  0  0  0  0  0  0  0  0  0
    3.3086    2.2249   -6.9371 H   0  0  0  0  0  0  0  0  0  0  0  0
    3.8886    3.4521   -5.8123 H   0  0  0  0  0  0  0  0  0  0  0  0
   -1.1851    1.1616    0.3758 H   0  0  0  0  0  0  0  0  0  0  0  0
    0.4973    1.4022   -0.0917 H   0  0  0  0  0  0  0  0  0  0  0  0
   -0.7479    2.4358   -0.7882 H   0  0  0  0  0  0  0  0  0  0  0  0
    2.4126   -3.0255   -1.2088 H   0  0  0  0  0  0  0  0  0  0  0  0
    3.7571   -2.0790   -1.9070 H   0  0  0  0  0  0  0  0  0  0  0  0
    3.7961   -2.5631   -0.2014 H   0  0  0  0  0  0  0  0  0  0  0  0
    3.1857   -0.1755   -0.4310 H   0  0  0  0  0  0  0  0  0  0  0  0
    1.8503   -1.1141    0.2770 H   0  0  0  0  0  0  0  0  0  0  0  0
    0.2865   -2.4957   -2.6028 H   0  0  0  0  0  0  0  0  0  0  0  0
    0.3250   -2.3296   -0.3678 H   0  0  0  0  0  0  0  0  0  0  0  0
  1  3  2  0  0  0  0
  1  5  1  0  0  0  0
  2  4  1  0  0  0  0
  2  5  2  0  0  0  0
  3  6  1  0  0  0  0
  4  6  2  0  0  0  0
  5  9  1  0  0  0  0
  6 14  1  0  0  0  0
  7  8  2  0  0  0  0
  8 10  1  0  0  0  0
  8 13  1  0  0  0  0
 11 12  1  0  0  0  0
 12 14  1  0  0  0  0
 13 14  1  0  0  0  0
 13 15  1  0  0  0  0
 13 16  1  0  0  0  0
  1 17  1  0  0  0  0
  2 18  1  0  0  0  0
  3 19  1  0  0  0  0
  4 20  1  0  0  0  0
  7 21  1  0  0  0  0
  7 22  1  0  0  0  0
  9 23  1  0  0  0  0
  9 24  1  0  0  0  0
  9 25  1  0  0  0  0
 10 26  1  0  0  0  0
 10 27  1  0  0  0  0
 10 28  1  0  0  0  0
 11 29  1  0  0  0  0
 11 30  1  0  0  0  0
 11 31  1  0  0  0  0
 12 32  1  0  0  0  0
 12 33  1  0  0  0  0
 15 34  1  0  0  0  0
 16 35  1  0  0  0  0
M  END
$$$$
