eMolecules_7440_6478972
  -OEChem-05261901543D

 24 23  0     0  0  0  0  0  0999 V2000
   -0.2916   -3.6299    0.5782 C   0  0  0  0  0  0  0  0  0  0  0  0
   -1.7700    1.8453    2.9672 C   0  0  0  0  0  0  0  0  0  0  0  0
    1.8372    0.1159   -1.4565 C   0  0  0  0  0  0  0  0  0  0  0  0
   -0.1223   -2.1371    0.7641 C   0  0  0  0  0  0  0  0  0  0  0  0
   -1.1821    1.8244    1.5724 C   0  0  0  0  0  0  0  0  0  0  0  0
    0.9449    0.5912   -0.4095 N   0  0  0  0  0  0  0  0  0  0  0  0
   -0.6966   -1.4652   -0.3454 O   0  0  0  0  0  0  0  0  0  0  0  0
   -1.2340    0.4993    1.0689 O   0  0  0  0  0  0  0  0  0  0  0  0
   -0.6663    0.1658   -0.4259 P   0  0  0  0  0  0  0  0  0  0  0  0
   -1.7935    0.8887   -1.8546 S   0  0  0  0  0  0  0  0  0  0  0  0
   -1.3500   -3.8980    0.5175 H   0  0  0  0  0  0  0  0  0  0  0  0
    0.2108   -3.9645   -0.3354 H   0  0  0  0  0  0  0  0  0  0  0  0
    0.1642   -4.1764    1.4105 H   0  0  0  0  0  0  0  0  0  0  0  0
   -2.8130    1.5170    2.9560 H   0  0  0  0  0  0  0  0  0  0  0  0
   -1.2007    1.1915    3.6360 H   0  0  0  0  0  0  0  0  0  0  0  0
   -1.7217    2.8539    3.3911 H   0  0  0  0  0  0  0  0  0  0  0  0
    1.6617   -0.9462   -1.6463 H   0  0  0  0  0  0  0  0  0  0  0  0
    2.8795    0.2521   -1.1556 H   0  0  0  0  0  0  0  0  0  0  0  0
    1.6641    0.6720   -2.3818 H   0  0  0  0  0  0  0  0  0  0  0  0
    0.9384   -1.8756    0.8239 H   0  0  0  0  0  0  0  0  0  0  0  0
   -0.6255   -1.8043    1.6768 H   0  0  0  0  0  0  0  0  0  0  0  0
   -0.1389    2.1539    1.5906 H   0  0  0  0  0  0  0  0  0  0  0  0
   -1.7526    2.4776    0.9053 H   0  0  0  0  0  0  0  0  0  0  0  0
    1.1313    1.5819   -0.2550 H   0  0  0  0  0  0  0  0  0  0  0  0
  1  4  1  0  0  0  0
  2  5  1  0  0  0  0
  3  6  1  0  0  0  0
  4  7  1  0  0  0  0
  5  8  1  0  0  0  0
  6  9  1  0  0  0  0
  7  9  1  0  0  0  0
  8  9  1  0  0  0  0
  9 10  2  0  0  0  0
  1 11  1  0  0  0  0
  1 12  1  0  0  0  0
  1 13  1  0  0  0  0
  2 14  1  0  0  0  0
  2 15  1  0  0  0  0
  2 16  1  0  0  0  0
  3 17  1  0  0  0  0
  3 18  1  0  0  0  0
  3 19  1  0  0  0  0
  4 20  1  0  0  0  0
  4 21  1  0  0  0  0
  5 22  1  0  0  0  0
  5 23  1  0  0  0  0
  6 24  1  0  0  0  0
M  END
$$$$
