eMolecules_1090_92385
  -OEChem-05261901553D

 50 53  0     1  0  0  0  0  0999 V2000
    1.6391   -0.9725   -0.1113 C   0  0  0  0  0  0  0  0  0  0  0  0
    0.2033    4.1829    3.8617 C   0  0  0  0  0  0  0  0  0  0  0  0
    6.6461    0.5020    5.6098 C   0  0  0  0  0  0  0  0  0  0  0  0
    0.1666   -0.2944    9.2807 C   0  0  0  0  0  0  0  0  0  0  0  0
    1.0713   -2.0492    0.5697 C   0  0  0  0  0  0  0  0  0  0  0  0
    2.2460    0.0617    0.6013 C   0  0  0  0  0  0  0  0  0  0  0  0
    1.3632    4.1735    4.6364 C   0  0  0  0  0  0  0  0  0  0  0  0
   -0.3840    2.9797    3.4705 C   0  0  0  0  0  0  0  0  0  0  0  0
    5.9849    1.3157    4.6900 C   0  0  0  0  0  0  0  0  0  0  0  0
    5.9237   -0.4073    6.3825 C   0  0  0  0  0  0  0  0  0  0  0  0
   -0.4683   -0.8161    8.1537 C   0  0  0  0  0  0  0  0  0  0  0  0
    1.3842    0.3734    9.1489 C   0  0  0  0  0  0  0  0  0  0  0  0
    1.1102   -2.0918    1.9634 C   0  0  0  0  0  0  0  0  0  0  0  0
    2.2849    0.0192    1.9950 C   0  0  0  0  0  0  0  0  0  0  0  0
    1.9359    2.9608    5.0198 C   0  0  0  0  0  0  0  0  0  0  0  0
    0.1887    1.7670    3.8539 C   0  0  0  0  0  0  0  0  0  0  0  0
    4.6011    1.2202    4.5427 C   0  0  0  0  0  0  0  0  0  0  0  0
    4.5399   -0.5028    6.2353 C   0  0  0  0  0  0  0  0  0  0  0  0
    0.1144   -0.6702    6.8947 C   0  0  0  0  0  0  0  0  0  0  0  0
    1.9669    0.5193    7.8900 C   0  0  0  0  0  0  0  0  0  0  0  0
    1.7171   -1.0576    2.6761 C   0  0  0  0  0  0  0  0  0  0  0  0
    1.3487    1.7575    4.6286 C   0  0  0  0  0  0  0  0  0  0  0  0
    3.8786    0.3109    5.3154 C   0  0  0  0  0  0  0  0  0  0  0  0
    1.3320   -0.0025    6.7629 C   0  0  0  0  0  0  0  0  0  0  0  0
    1.7953   -2.4468    4.6724 C   0  0  0  0  0  0  0  0  0  0  0  0
    1.7568   -1.1003    4.0852 N   0  0  3  0  0  0  0  0  0  0  0  0
    2.0900    0.1874    5.1251 P   0  3  0  0  0  0  0  0  0  0  0  0
    1.6085   -0.9394   -1.1966 H   0  0  0  0  0  0  0  0  0  0  0  0
   -0.2424    5.1273    3.5632 H   0  0  0  0  0  0  0  0  0  0  0  0
    7.7236    0.5765    5.7244 H   0  0  0  0  0  0  0  0  0  0  0  0
   -0.2872   -0.4081   10.2609 H   0  0  0  0  0  0  0  0  0  0  0  0
    0.5988   -2.8542    0.0148 H   0  0  0  0  0  0  0  0  0  0  0  0
    2.6881    0.9002    0.0708 H   0  0  0  0  0  0  0  0  0  0  0  0
    1.8207    5.1103    4.9407 H   0  0  0  0  0  0  0  0  0  0  0  0
   -1.2873    2.9872    2.8676 H   0  0  0  0  0  0  0  0  0  0  0  0
    6.5473    2.0239    4.0886 H   0  0  0  0  0  0  0  0  0  0  0  0
    6.4387   -1.0410    7.0985 H   0  0  0  0  0  0  0  0  0  0  0  0
   -1.4161   -1.3363    8.2563 H   0  0  0  0  0  0  0  0  0  0  0  0
    1.8783    0.7798   10.0265 H   0  0  0  0  0  0  0  0  0  0  0  0
    0.6648   -2.9352    2.4846 H   0  0  0  0  0  0  0  0  0  0  0  0
    2.7607    0.8307    2.5398 H   0  0  0  0  0  0  0  0  0  0  0  0
    2.8395    2.9584    5.6227 H   0  0  0  0  0  0  0  0  0  0  0  0
   -0.2725    0.8326    3.5472 H   0  0  0  0  0  0  0  0  0  0  0  0
    4.0904    1.8563    3.8255 H   0  0  0  0  0  0  0  0  0  0  0  0
    3.9816   -1.2127    6.8389 H   0  0  0  0  0  0  0  0  0  0  0  0
   -0.3835   -1.0787    6.0200 H   0  0  0  0  0  0  0  0  0  0  0  0
    2.9149    1.0404    7.7923 H   0  0  0  0  0  0  0  0  0  0  0  0
    1.8244   -2.3803    5.7631 H   0  0  0  0  0  0  0  0  0  0  0  0
    2.6836   -2.9837    4.3287 H   0  0  0  0  0  0  0  0  0  0  0  0
    0.9077   -3.0131    4.3779 H   0  0  0  0  0  0  0  0  0  0  0  0
  1  5  1  0  0  0  0
  1  6  2  0  0  0  0
  2  7  1  0  0  0  0
  2  8  2  0  0  0  0
  3  9  1  0  0  0  0
  3 10  2  0  0  0  0
  4 11  1  0  0  0  0
  4 12  2  0  0  0  0
  5 13  2  0  0  0  0
  6 14  1  0  0  0  0
  7 15  2  0  0  0  0
  8 16  1  0  0  0  0
  9 17  2  0  0  0  0
 10 18  1  0  0  0  0
 11 19  2  0  0  0  0
 12 20  1  0  0  0  0
 13 21  1  0  0  0  0
 14 21  2  0  0  0  0
 15 22  1  0  0  0  0
 16 22  2  0  0  0  0
 17 23  1  0  0  0  0
 18 23  2  0  0  0  0
 19 24  1  0  0  0  0
 20 24  2  0  0  0  0
 21 26  1  0  0  0  0
 22 27  1  0  0  0  0
 23 27  1  0  0  0  0
 24 27  1  0  0  0  0
 25 26  1  0  0  0  0
 26 27  1  0  0  0  0
  1 28  1  0  0  0  0
  2 29  1  0  0  0  0
  3 30  1  0  0  0  0
  4 31  1  0  0  0  0
  5 32  1  0  0  0  0
  6 33  1  0  0  0  0
  7 34  1  0  0  0  0
  8 35  1  0  0  0  0
  9 36  1  0  0  0  0
 10 37  1  0  0  0  0
 11 38  1  0  0  0  0
 12 39  1  0  0  0  0
 13 40  1  0  0  0  0
 14 41  1  0  0  0  0
 15 42  1  0  0  0  0
 16 43  1  0  0  0  0
 17 44  1  0  0  0  0
 18 45  1  0  0  0  0
 19 46  1  0  0  0  0
 20 47  1  0  0  0  0
 25 48  1  0  0  0  0
 25 49  1  0  0  0  0
 25 50  1  0  0  0  0
M  CHG  1  27   1
M  END
$$$$
