eMolecules_1257_259977
  -OEChem-05261901553D

 23 25  0     0  0  0  0  0  0999 V2000
    2.0075   -0.4788    0.6046 C   0  0  0  0  0  0  0  0  0  0  0  0
    0.6383   -0.3105    0.8235 C   0  0  0  0  0  0  0  0  0  0  0  0
    2.8602   -0.8780    1.6415 C   0  0  0  0  0  0  0  0  0  0  0  0
    0.0716   -0.5343    2.0827 C   0  0  0  0  0  0  0  0  0  0  0  0
    3.5910   -3.5340    7.2270 C   0  0  0  0  0  0  0  0  0  0  0  0
    3.9315   -1.4554    7.7491 C   0  0  0  0  0  0  0  0  0  0  0  0
    2.3079   -1.1070    2.9131 C   0  0  0  0  0  0  0  0  0  0  0  0
    0.9398   -0.9311    3.1003 C   0  0  0  0  0  0  0  0  0  0  0  0
    1.9446   -1.5634    4.9672 C   0  0  0  0  0  0  0  0  0  0  0  0
    4.6503   -3.4905    8.0030 N   0  0  0  0  0  0  0  0  0  0  0  0
    4.8670   -2.1680    8.3352 N   0  0  0  0  0  0  0  0  0  0  0  0
    2.9153   -1.4999    4.0836 N   0  0  0  0  0  0  0  0  0  0  0  0
    0.7355   -1.2298    4.4230 N   0  0  0  0  0  0  0  0  0  0  0  0
    3.1061   -2.2751    7.0407 N   0  0  0  0  0  0  0  0  0  0  0  0
    1.9873   -1.8991    6.2754 N   0  0  0  0  0  0  0  0  0  0  0  0
    2.4184   -0.2993   -0.3855 H   0  0  0  0  0  0  0  0  0  0  0  0
    0.0009    0.0003   -0.0007 H   0  0  0  0  0  0  0  0  0  0  0  0
    3.9224   -1.0080    1.4612 H   0  0  0  0  0  0  0  0  0  0  0  0
   -0.9906   -0.4049    2.2557 H   0  0  0  0  0  0  0  0  0  0  0  0
    3.1488   -4.4177    6.7888 H   0  0  0  0  0  0  0  0  0  0  0  0
    3.8107   -0.3827    7.8038 H   0  0  0  0  0  0  0  0  0  0  0  0
   -0.1506   -1.2083    4.9098 H   0  0  0  0  0  0  0  0  0  0  0  0
    1.1168   -1.9004    6.8463 H   0  0  0  0  0  0  0  0  0  0  0  0
  1  2  1  0  0  0  0
  1  3  2  0  0  0  0
  2  4  2  0  0  0  0
  3  7  1  0  0  0  0
  4  8  1  0  0  0  0
  5 10  2  0  0  0  0
  5 14  1  0  0  0  0
  6 11  2  0  0  0  0
  6 14  1  0  0  0  0
  7  8  2  0  0  0  0
  7 12  1  0  0  0  0
  8 13  1  0  0  0  0
  9 12  2  0  0  0  0
  9 13  1  0  0  0  0
  9 15  1  0  0  0  0
 10 11  1  0  0  0  0
 14 15  1  0  0  0  0
  1 16  1  0  0  0  0
  2 17  1  0  0  0  0
  3 18  1  0  0  0  0
  4 19  1  0  0  0  0
  5 20  1  0  0  0  0
  6 21  1  0  0  0  0
 13 22  1  0  0  0  0
 15 23  1  0  0  0  0
M  END
$$$$
