eMolecules_8556_7600607
  -OEChem-05261901553D

 33 34  0     0  0  0  0  0  0999 V2000
   -1.1269    1.8974    0.2531 C   0  0  0  0  0  0  0  0  0  0  0  0
   -0.9973    0.5104    0.2146 C   0  0  0  0  0  0  0  0  0  0  0  0
   -2.2196    2.4757    0.8952 C   0  0  0  0  0  0  0  0  0  0  0  0
   -1.9617   -0.2994    0.8188 C   0  0  0  0  0  0  0  0  0  0  0  0
   -3.1769    1.6524    1.4951 C   0  0  0  0  0  0  0  0  0  0  0  0
   -3.0654    0.2669    1.4674 C   0  0  0  0  0  0  0  0  0  0  0  0
   -4.3450    2.2053    2.1828 C   0  0  0  0  0  0  0  0  0  0  0  0
   -6.3731    2.0034    4.8255 C   0  0  0  0  0  0  0  0  0  0  0  0
   -3.7242    1.7505    7.3527 C   0  0  0  0  0  0  0  0  0  0  0  0
   -8.4775    0.3046    2.6103 C   0  0  0  0  0  0  0  0  0  0  0  0
   -5.1190    2.0448    6.8430 C   0  0  0  0  0  0  0  0  0  0  0  0
   -4.0104   -0.5803    2.0608 N   0  0  0  0  0  0  0  0  0  0  0  0
   -5.0025   -0.0906    2.6447 N   0  0  0  0  0  0  0  0  0  0  0  0
   -5.1888    1.2524    2.7187 N   0  0  0  0  0  0  0  0  0  0  0  0
   -6.3748    1.7255    3.4206 N   0  0  0  0  0  0  0  0  0  0  0  0
   -4.5082    3.4193    2.2463 O   0  0  0  0  0  0  0  0  0  0  0  0
   -7.3714    2.4016    5.4160 O   0  0  0  0  0  0  0  0  0  0  0  0
   -8.6727    2.8655    3.0828 O   0  0  0  0  0  0  0  0  0  0  0  0
   -7.3731    2.0966    1.0676 O   0  0  0  0  0  0  0  0  0  0  0  0
   -5.1666    1.7822    5.4363 O   0  0  0  0  0  0  0  0  0  0  0  0
   -7.7647    1.9254    2.4536 S   0  0  0  0  0  0  0  0  0  0  0  0
   -0.3767    2.5264   -0.2169 H   0  0  0  0  0  0  0  0  0  0  0  0
   -0.1458    0.0581   -0.2855 H   0  0  0  0  0  0  0  0  0  0  0  0
   -2.3096    3.5578    0.9187 H   0  0  0  0  0  0  0  0  0  0  0  0
   -1.8456   -1.3800    0.7798 H   0  0  0  0  0  0  0  0  0  0  0  0
   -3.4603    0.7027    7.1842 H   0  0  0  0  0  0  0  0  0  0  0  0
   -2.9875    2.3858    6.8502 H   0  0  0  0  0  0  0  0  0  0  0  0
   -3.6516    1.9651    8.4241 H   0  0  0  0  0  0  0  0  0  0  0  0
   -9.4005    0.2766    2.0291 H   0  0  0  0  0  0  0  0  0  0  0  0
   -7.7621   -0.4248    2.2274 H   0  0  0  0  0  0  0  0  0  0  0  0
   -8.6843    0.1200    3.6656 H   0  0  0  0  0  0  0  0  0  0  0  0
   -5.3767    3.0942    7.0146 H   0  0  0  0  0  0  0  0  0  0  0  0
   -5.8536    1.4086    7.3455 H   0  0  0  0  0  0  0  0  0  0  0  0
  1  2  1  0  0  0  0
  1  3  2  0  0  0  0
  2  4  2  0  0  0  0
  3  5  1  0  0  0  0
  4  6  1  0  0  0  0
  5  6  2  0  0  0  0
  5  7  1  0  0  0  0
  6 12  1  0  0  0  0
  7 14  1  0  0  0  0
  7 16  2  0  0  0  0
  8 15  1  0  0  0  0
  8 17  2  0  0  0  0
  8 20  1  0  0  0  0
  9 11  1  0  0  0  0
 10 21  1  0  0  0  0
 11 20  1  0  0  0  0
 12 13  2  0  0  0  0
 13 14  1  0  0  0  0
 14 15  1  0  0  0  0
 15 21  1  0  0  0  0
 18 21  2  0  0  0  0
 19 21  2  0  0  0  0
  1 22  1  0  0  0  0
  2 23  1  0  0  0  0
  3 24  1  0  0  0  0
  4 25  1  0  0  0  0
  9 26  1  0  0  0  0
  9 27  1  0  0  0  0
  9 28  1  0  0  0  0
 10 29  1  0  0  0  0
 10 30  1  0  0  0  0
 10 31  1  0  0  0  0
 11 32  1  0  0  0  0
 11 33  1  0  0  0  0
M  END
$$$$
