eMolecules_1416_419416
  -OEChem-05261901553D

 22 24  0     0  0  0  0  0  0999 V2000
   -0.9411   -1.4569   -1.2903 C   0  0  0  0  0  0  0  0  0  0  0  0
   -0.0612   -1.0523   -0.2655 C   0  0  0  0  0  0  0  0  0  0  0  0
   -1.0463   -2.8010   -1.6593 C   0  0  0  0  0  0  0  0  0  0  0  0
    0.7314   -1.9835    0.4117 C   0  0  0  0  0  0  0  0  0  0  0  0
    2.1853   -7.4691   -0.6350 C   0  0  0  0  0  0  0  0  0  0  0  0
    0.6018   -7.7301    0.8257 C   0  0  0  0  0  0  0  0  0  0  0  0
   -0.2559   -3.7035   -0.9783 C   0  0  0  0  0  0  0  0  0  0  0  0
    0.6118   -3.3046    0.0326 C   0  0  0  0  0  0  0  0  0  0  0  0
   -0.1430   -5.1557   -1.1352 C   0  0  0  0  0  0  0  0  0  0  0  0
    1.2991   -4.4926    0.5452 C   0  0  0  0  0  0  0  0  0  0  0  0
    2.2479   -8.7081   -0.2021 N   0  0  0  0  0  0  0  0  0  0  0  0
    1.2405   -8.8741    0.7273 N   0  0  0  0  0  0  0  0  0  0  0  0
    1.1632   -6.8170   -0.0144 N   0  0  0  0  0  0  0  0  0  0  0  0
    0.7879   -5.5405   -0.1948 N   0  0  0  0  0  0  0  0  0  0  0  0
   -0.7682   -5.8119   -1.9465 O   0  0  0  0  0  0  0  0  0  0  0  0
    2.1295   -4.4806    1.4340 O   0  0  0  0  0  0  0  0  0  0  0  0
   -1.5451   -0.7103   -1.7993 H   0  0  0  0  0  0  0  0  0  0  0  0
    0.0010    0.0002   -0.0014 H   0  0  0  0  0  0  0  0  0  0  0  0
   -1.7221   -3.1113   -2.4475 H   0  0  0  0  0  0  0  0  0  0  0  0
    1.4087   -1.6718    1.1979 H   0  0  0  0  0  0  0  0  0  0  0  0
    2.8322   -7.0112   -1.3698 H   0  0  0  0  0  0  0  0  0  0  0  0
   -0.2416   -7.5167    1.4671 H   0  0  0  0  0  0  0  0  0  0  0  0
  1  2  1  0  0  0  0
  1  3  2  0  0  0  0
  2  4  2  0  0  0  0
  3  7  1  0  0  0  0
  4  8  1  0  0  0  0
  5 11  2  0  0  0  0
  5 13  1  0  0  0  0
  6 12  2  0  0  0  0
  6 13  1  0  0  0  0
  7  8  2  0  0  0  0
  7  9  1  0  0  0  0
  8 10  1  0  0  0  0
  9 14  1  0  0  0  0
  9 15  2  0  0  0  0
 10 14  1  0  0  0  0
 10 16  2  0  0  0  0
 11 12  1  0  0  0  0
 13 14  1  0  0  0  0
  1 17  1  0  0  0  0
  2 18  1  0  0  0  0
  3 19  1  0  0  0  0
  4 20  1  0  0  0  0
  5 21  1  0  0  0  0
  6 22  1  0  0  0  0
M  END
$$$$
