eMolecules_3944_2951919
  -OEChem-05261901553D

 48 51  0     0  0  0  0  0  0999 V2000
   -6.0144    5.7167   -2.7919 C   0  0  0  0  0  0  0  0  0  0  0  0
   -0.8443    1.1014    0.7982 C   0  0  0  0  0  0  0  0  0  0  0  0
   -0.7482    0.1226   -1.4085 C   0  0  0  0  0  0  0  0  0  0  0  0
    5.8273   -2.4260    0.7430 C   0  0  0  0  0  0  0  0  0  0  0  0
    6.5485   -0.1564    1.1505 C   0  0  0  0  0  0  0  0  0  0  0  0
   -1.8412    1.9763    0.3668 C   0  0  0  0  0  0  0  0  0  0  0  0
   -1.7452    0.9975   -1.8400 C   0  0  0  0  0  0  0  0  0  0  0  0
    7.1154   -2.8848    1.0185 C   0  0  0  0  0  0  0  0  0  0  0  0
    7.8366   -0.6152    1.4260 C   0  0  0  0  0  0  0  0  0  0  0  0
   -5.2599    4.6261   -2.2710 C   0  0  0  0  0  0  0  0  0  0  0  0
   -5.2064    6.7450   -3.2248 C   0  0  0  0  0  0  0  0  0  0  0  0
   -0.2977    0.1746   -0.0894 C   0  0  0  0  0  0  0  0  0  0  0  0
    5.5438   -1.0618    0.8089 C   0  0  0  0  0  0  0  0  0  0  0  0
   -2.2917    1.9244   -0.9523 C   0  0  0  0  0  0  0  0  0  0  0  0
    8.1200   -1.9794    1.3600 C   0  0  0  0  0  0  0  0  0  0  0  0
   -3.9037    4.8623   -2.3258 C   0  0  0  0  0  0  0  0  0  0  0  0
    2.0332   -0.4625    0.3304 C   0  0  0  0  0  0  0  0  0  0  0  0
    2.7085    0.7499   -0.1322 C   0  0  0  0  0  0  0  0  0  0  0  0
    3.1083   -1.3684    0.7801 C   0  0  0  0  0  0  0  0  0  0  0  0
    0.7289   -0.7263    0.3549 C   0  0  0  0  0  0  0  0  0  0  0  0
   -2.7873    3.9858   -1.8884 C   0  0  0  0  0  0  0  0  0  0  0  0
    2.0037    1.9442   -0.6776 C   0  0  0  0  0  0  0  0  0  0  0  0
    4.0034    0.6502   -0.0082 N   0  0  0  0  0  0  0  0  0  0  0  0
    4.2637   -0.6059    0.5351 N   0  0  0  0  0  0  0  0  0  0  0  0
    2.9829   -2.4866    1.2408 O   0  0  0  0  0  0  0  0  0  0  0  0
   -1.6110    4.3020   -1.9860 O   0  0  0  0  0  0  0  0  0  0  0  0
    9.9056   -3.8355    1.0367 O   0  0  0  0  0  0  0  0  0  0  0  0
   10.6417   -1.4499    1.4381 O   0  0  0  0  0  0  0  0  0  0  0  0
    9.7491   -2.8479    3.3127 O   0  0  0  0  0  0  0  0  0  0  0  0
   -3.2646    2.7781   -1.3734 O   0  0  0  0  0  0  0  0  0  0  0  0
   -3.5452    6.3938   -3.0028 S   0  0  0  0  0  0  0  0  0  0  0  0
    9.7325   -2.5536    1.7045 S   0  0  0  0  0  0  0  0  0  0  0  0
   -7.0949    5.7460   -2.8452 H   0  0  0  0  0  0  0  0  0  0  0  0
   -0.5035    1.1540    1.8295 H   0  0  0  0  0  0  0  0  0  0  0  0
   -0.3319   -0.5944   -2.1122 H   0  0  0  0  0  0  0  0  0  0  0  0
    5.0522   -3.1406    0.4778 H   0  0  0  0  0  0  0  0  0  0  0  0
    6.3389    0.9089    1.2051 H   0  0  0  0  0  0  0  0  0  0  0  0
   -2.2632    2.6962    1.0628 H   0  0  0  0  0  0  0  0  0  0  0  0
   -2.0921    0.9522   -2.8688 H   0  0  0  0  0  0  0  0  0  0  0  0
    7.3254   -3.9496    0.9639 H   0  0  0  0  0  0  0  0  0  0  0  0
    8.6118    0.0987    1.6911 H   0  0  0  0  0  0  0  0  0  0  0  0
   -5.6953    3.7162   -1.8774 H   0  0  0  0  0  0  0  0  0  0  0  0
   -5.5125    7.6859   -3.6599 H   0  0  0  0  0  0  0  0  0  0  0  0
    0.4121   -1.6863    0.7669 H   0  0  0  0  0  0  0  0  0  0  0  0
    1.7656    2.6376    0.1302 H   0  0  0  0  0  0  0  0  0  0  0  0
    1.0790    1.6391   -1.1704 H   0  0  0  0  0  0  0  0  0  0  0  0
    2.6377    2.4502   -1.4074 H   0  0  0  0  0  0  0  0  0  0  0  0
    9.1639   -3.5832    3.6116 H   0  0  0  0  0  0  0  0  0  0  0  0
  1 10  1  0  0  0  0
  1 11  2  0  0  0  0
  2  6  2  0  0  0  0
  2 12  1  0  0  0  0
  3  7  1  0  0  0  0
  3 12  2  0  0  0  0
  4  8  2  0  0  0  0
  4 13  1  0  0  0  0
  5  9  1  0  0  0  0
  5 13  2  0  0  0  0
  6 14  1  0  0  0  0
  7 14  2  0  0  0  0
  8 15  1  0  0  0  0
  9 15  2  0  0  0  0
 10 16  2  0  0  0  0
 11 31  1  0  0  0  0
 12 20  1  0  0  0  0
 13 24  1  0  0  0  0
 14 30  1  0  0  0  0
 15 32  1  0  0  0  0
 16 21  1  0  0  0  0
 16 31  1  0  0  0  0
 17 18  1  0  0  0  0
 17 19  1  0  0  0  0
 17 20  2  0  0  0  0
 18 22  1  0  0  0  0
 18 23  2  0  0  0  0
 19 24  1  0  0  0  0
 19 25  2  0  0  0  0
 21 26  2  0  0  0  0
 21 30  1  0  0  0  0
 23 24  1  0  0  0  0
 27 32  2  0  0  0  0
 28 32  2  0  0  0  0
 29 32  1  0  0  0  0
  1 33  1  0  0  0  0
  2 34  1  0  0  0  0
  3 35  1  0  0  0  0
  4 36  1  0  0  0  0
  5 37  1  0  0  0  0
  6 38  1  0  0  0  0
  7 39  1  0  0  0  0
  8 40  1  0  0  0  0
  9 41  1  0  0  0  0
 10 42  1  0  0  0  0
 11 43  1  0  0  0  0
 20 44  1  0  0  0  0
 22 45  1  0  0  0  0
 22 46  1  0  0  0  0
 22 47  1  0  0  0  0
 29 48  1  0  0  0  0
M  END
$$$$
