eMolecules_8577_7622183
  -OEChem-05261901543D

 11 10  0     0  0  0  0  0  0999 V2000
    1.7020   -1.7900   -0.4684 C   0  0  0  0  0  0  0  0  0  0  0  0
    0.9653    0.3328    0.4160 C   0  0  0  0  0  0  0  0  0  0  0  0
    3.3175   -0.3262    0.6916 C   0  0  0  0  0  0  0  0  0  0  0  0
    1.9749   -0.6016    0.2043 N   0  0  0  0  0  0  0  0  0  0  0  0
    2.4882   -2.6960   -0.7237 O   0  0  0  0  0  0  0  0  0  0  0  0
    1.0575    1.4138    0.9875 O   0  0  0  0  0  0  0  0  0  0  0  0
    0.6477   -1.8549   -0.7850 H   0  0  0  0  0  0  0  0  0  0  0  0
    0.0027    0.0053   -0.0103 H   0  0  0  0  0  0  0  0  0  0  0  0
    3.8955    0.1968   -0.0747 H   0  0  0  0  0  0  0  0  0  0  0  0
    3.8281   -1.2604    0.9410 H   0  0  0  0  0  0  0  0  0  0  0  0
    3.2736    0.2991    1.5874 H   0  0  0  0  0  0  0  0  0  0  0  0
  1  4  1  0  0  0  0
  1  5  2  0  0  0  0
  2  4  1  0  0  0  0
  2  6  2  0  0  0  0
  3  4  1  0  0  0  0
  1  7  1  0  0  0  0
  2  8  1  0  0  0  0
  3  9  1  0  0  0  0
  3 10  1  0  0  0  0
  3 11  1  0  0  0  0
M  END
$$$$
