eMolecules_8914_7962952
  -OEChem-05261901553D

 21 21  0     0  0  0  0  0  0999 V2000
   -0.7831    1.2603    0.3614 C   0  0  0  0  0  0  0  0  0  0  0  0
    0.4422   -0.6295   -0.1683 C   0  0  0  0  0  0  0  0  0  0  0  0
    0.6283    0.7416    0.4460 C   0  0  0  0  0  0  0  0  0  0  0  0
   -2.1801   -1.3711   -2.4255 C   0  0  0  0  0  0  0  0  0  0  0  0
   -2.6575   -2.3251   -0.1434 C   0  0  0  0  0  0  0  0  0  0  0  0
   -1.5867   -1.8131   -1.0957 C   0  0  0  0  0  0  0  0  0  0  0  0
   -1.6239    0.4325   -0.1634 N   0  0  0  0  0  0  0  0  0  0  0  0
   -0.9140   -0.6944   -0.4837 N   0  0  0  0  0  0  0  0  0  0  0  0
    1.3148   -1.4654   -0.3328 O   0  0  0  0  0  0  0  0  0  0  0  0
    0.9918    0.6919    1.7982 O   0  0  0  0  0  0  0  0  0  0  0  0
    1.4457    1.5806   -0.3225 O   0  0  0  0  0  0  0  0  0  0  0  0
   -1.0456    2.2638    0.7248 H   0  0  0  0  0  0  0  0  0  0  0  0
   -2.9254   -0.5829   -2.2772 H   0  0  0  0  0  0  0  0  0  0  0  0
   -1.4070   -0.9873   -3.1006 H   0  0  0  0  0  0  0  0  0  0  0  0
   -2.6704   -2.2107   -2.9304 H   0  0  0  0  0  0  0  0  0  0  0  0
   -3.4116   -1.5529    0.0442 H   0  0  0  0  0  0  0  0  0  0  0  0
   -2.2193   -2.6117    0.8182 H   0  0  0  0  0  0  0  0  0  0  0  0
   -3.1760   -3.1979   -0.5558 H   0  0  0  0  0  0  0  0  0  0  0  0
   -0.8451   -2.6007   -1.2682 H   0  0  0  0  0  0  0  0  0  0  0  0
    0.3712    0.0909    2.2541 H   0  0  0  0  0  0  0  0  0  0  0  0
    1.1197    1.5566   -1.2431 H   0  0  0  0  0  0  0  0  0  0  0  0
  1  3  1  0  0  0  0
  1  7  2  0  0  0  0
  2  3  1  0  0  0  0
  2  8  1  0  0  0  0
  2  9  2  0  0  0  0
  3 10  1  0  0  0  0
  3 11  1  0  0  0  0
  4  6  1  0  0  0  0
  5  6  1  0  0  0  0
  6  8  1  0  0  0  0
  7  8  1  0  0  0  0
  1 12  1  0  0  0  0
  4 13  1  0  0  0  0
  4 14  1  0  0  0  0
  4 15  1  0  0  0  0
  5 16  1  0  0  0  0
  5 17  1  0  0  0  0
  5 18  1  0  0  0  0
  6 19  1  0  0  0  0
 10 20  1  0  0  0  0
 11 21  1  0  0  0  0
M  END
$$$$
