eMolecules_8931_7979743
  -OEChem-05261901553D

 15 15  0     0  0  0  0  0  0999 V2000
    3.6244    3.1123   -0.7221 C   0  0  0  0  0  0  0  0  0  0  0  0
    3.1483    3.1306    0.5722 C   0  0  0  0  0  0  0  0  0  0  0  0
    2.3843    1.3052   -0.8014 C   0  0  0  0  0  0  0  0  0  0  0  0
    1.8429   -0.3898   -2.5227 C   0  0  0  0  0  0  0  0  0  0  0  0
    0.8330   -0.6378   -0.3121 C   0  0  0  0  0  0  0  0  0  0  0  0
    3.1877    2.0661   -1.5111 N   0  0  0  0  0  0  0  0  0  0  0  0
    1.7003    0.1044   -1.2259 N   0  0  0  0  0  0  0  0  0  0  0  0
    1.3156   -1.3940   -2.9959 O   0  0  0  0  0  0  0  0  0  0  0  0
    2.1094    1.7891    0.8219 S   0  0  0  0  0  0  0  0  0  0  0  0
    4.2974    3.8461   -1.1445 H   0  0  0  0  0  0  0  0  0  0  0  0
    3.3523    3.8456    1.3561 H   0  0  0  0  0  0  0  0  0  0  0  0
    2.5006    0.2075   -3.1622 H   0  0  0  0  0  0  0  0  0  0  0  0
   -0.1920   -0.2643   -0.3805 H   0  0  0  0  0  0  0  0  0  0  0  0
    1.1818   -0.5221    0.7177 H   0  0  0  0  0  0  0  0  0  0  0  0
    0.8379   -1.7011   -0.5664 H   0  0  0  0  0  0  0  0  0  0  0  0
  1  2  2  0  0  0  0
  1  6  1  0  0  0  0
  2  9  1  0  0  0  0
  3  6  2  0  0  0  0
  3  7  1  0  0  0  0
  3  9  1  0  0  0  0
  4  7  1  0  0  0  0
  4  8  2  0  0  0  0
  5  7  1  0  0  0  0
  1 10  1  0  0  0  0
  2 11  1  0  0  0  0
  4 12  1  0  0  0  0
  5 13  1  0  0  0  0
  5 14  1  0  0  0  0
  5 15  1  0  0  0  0
M  END
$$$$
