eMolecules_8905_7954201
  -OEChem-05261901553D

 25 26  0     1  0  0  0  0  0999 V2000
    3.7470    2.3027    3.2731 C   0  0  0  0  0  0  0  0  0  0  0  0
    5.8242    0.3496    1.0113 C   0  0  0  0  0  0  0  0  0  0  0  0
    5.6881    1.2047    2.1327 C   0  0  0  0  0  0  0  0  0  0  0  0
    0.0848    0.3252    1.9352 C   0  0  0  0  0  0  0  0  0  0  0  0
    1.7933   -1.3676    1.9374 C   0  0  0  0  0  0  0  0  0  0  0  0
   -0.7675   -0.6106    2.4988 C   0  0  0  0  0  0  0  0  0  0  0  0
    0.8646   -2.2276    2.5010 C   0  0  0  0  0  0  0  0  0  0  0  0
    4.5620    0.1313    0.5049 C   0  0  0  0  0  0  0  0  0  0  0  0
    4.3467    1.4827    2.2775 C   0  0  0  0  0  0  0  0  0  0  0  0
    1.3879   -0.0684    1.6522 C   0  0  0  0  0  0  0  0  0  0  0  0
    1.8281    1.9139    0.1989 C   0  0  0  0  0  0  0  0  0  0  0  0
    3.2577    2.9717    4.0854 N   0  0  0  0  0  0  0  0  0  0  0  0
   -0.4099   -1.8814    2.7900 N   0  0  0  0  0  0  0  0  0  0  0  0
    3.6718    0.8248    1.2827 N   0  0  0  0  0  0  0  0  0  0  0  0
    2.2946    0.8455    1.0779 N   0  0  3  0  0  0  0  0  0  0  0  0
    6.7415   -0.0623    0.6149 H   0  0  0  0  0  0  0  0  0  0  0  0
    6.4869    1.5736    2.7619 H   0  0  0  0  0  0  0  0  0  0  0  0
   -0.2629    1.3312    1.7252 H   0  0  0  0  0  0  0  0  0  0  0  0
    2.8024   -1.7072    1.7293 H   0  0  0  0  0  0  0  0  0  0  0  0
   -1.7939   -0.3532    2.7387 H   0  0  0  0  0  0  0  0  0  0  0  0
    1.1307   -3.2513    2.7430 H   0  0  0  0  0  0  0  0  0  0  0  0
    4.2284   -0.4572   -0.3395 H   0  0  0  0  0  0  0  0  0  0  0  0
    1.5977    2.8081    0.7840 H   0  0  0  0  0  0  0  0  0  0  0  0
    0.9260    1.5992   -0.3328 H   0  0  0  0  0  0  0  0  0  0  0  0
    2.5988    2.1628   -0.5355 H   0  0  0  0  0  0  0  0  0  0  0  0
  1  9  1  0  0  0  0
  1 12  3  0  0  0  0
  2  3  1  0  0  0  0
  2  8  2  0  0  0  0
  3  9  2  0  0  0  0
  4  6  2  0  0  0  0
  4 10  1  0  0  0  0
  5  7  1  0  0  0  0
  5 10  2  0  0  0  0
  6 13  1  0  0  0  0
  7 13  2  0  0  0  0
  8 14  1  0  0  0  0
  9 14  1  0  0  0  0
 10 15  1  0  0  0  0
 11 15  1  0  0  0  0
 14 15  1  0  0  0  0
  2 16  1  0  0  0  0
  3 17  1  0  0  0  0
  4 18  1  0  0  0  0
  5 19  1  0  0  0  0
  6 20  1  0  0  0  0
  7 21  1  0  0  0  0
  8 22  1  0  0  0  0
 11 23  1  0  0  0  0
 11 24  1  0  0  0  0
 11 25  1  0  0  0  0
M  END
$$$$
