eMolecules_1014_15714
  -OEChem-05261901553D

 25 26  0     0  0  0  0  0  0999 V2000
    1.8846   -1.0365   -0.1125 C   0  0  0  0  0  0  0  0  0  0  0  0
    4.2139    1.4024    6.4912 C   0  0  0  0  0  0  0  0  0  0  0  0
    1.5483    0.1191    0.5925 C   0  0  0  0  0  0  0  0  0  0  0  0
    2.1783   -2.2133    0.5766 C   0  0  0  0  0  0  0  0  0  0  0  0
    4.6632    0.9785    5.2406 C   0  0  0  0  0  0  0  0  0  0  0  0
    2.9588    1.0054    6.9527 C   0  0  0  0  0  0  0  0  0  0  0  0
    1.5059    0.0981    1.9866 C   0  0  0  0  0  0  0  0  0  0  0  0
    2.1359   -2.2343    1.9706 C   0  0  0  0  0  0  0  0  0  0  0  0
    3.8575    0.1578    4.4514 C   0  0  0  0  0  0  0  0  0  0  0  0
    2.1531    0.1847    6.1635 C   0  0  0  0  0  0  0  0  0  0  0  0
    1.7997   -1.0786    2.6757 C   0  0  0  0  0  0  0  0  0  0  0  0
    2.6024   -0.2391    4.9129 C   0  0  0  0  0  0  0  0  0  0  0  0
    0.9517   -1.9879    4.7875 N   0  0  0  0  0  0  0  0  0  0  0  0
    1.7568   -1.1003    4.0852 N   0  0  0  0  0  0  0  0  0  0  0  0
   -0.0816   -2.3055    4.1860 O   0  0  0  0  0  0  0  0  0  0  0  0
    1.9178   -1.0200   -1.1980 H   0  0  0  0  0  0  0  0  0  0  0  0
    4.8413    2.0417    7.1056 H   0  0  0  0  0  0  0  0  0  0  0  0
    1.3198    1.0350    0.0560 H   0  0  0  0  0  0  0  0  0  0  0  0
    2.4402   -3.1131    0.0273 H   0  0  0  0  0  0  0  0  0  0  0  0
    5.6402    1.2877    4.8815 H   0  0  0  0  0  0  0  0  0  0  0  0
    2.6091    1.3356    7.9267 H   0  0  0  0  0  0  0  0  0  0  0  0
    1.2429    1.0039    2.5266 H   0  0  0  0  0  0  0  0  0  0  0  0
    2.3665   -3.1571    2.4969 H   0  0  0  0  0  0  0  0  0  0  0  0
    4.2168   -0.1669    3.4783 H   0  0  0  0  0  0  0  0  0  0  0  0
    1.1769   -0.1185    6.5337 H   0  0  0  0  0  0  0  0  0  0  0  0
  1  3  1  0  0  0  0
  1  4  2  0  0  0  0
  2  5  1  0  0  0  0
  2  6  2  0  0  0  0
  3  7  2  0  0  0  0
  4  8  1  0  0  0  0
  5  9  2  0  0  0  0
  6 10  1  0  0  0  0
  7 11  1  0  0  0  0
  8 11  2  0  0  0  0
  9 12  1  0  0  0  0
 10 12  2  0  0  0  0
 11 14  1  0  0  0  0
 12 14  1  0  0  0  0
 13 14  1  0  0  0  0
 13 15  2  0  0  0  0
  1 16  1  0  0  0  0
  2 17  1  0  0  0  0
  3 18  1  0  0  0  0
  4 19  1  0  0  0  0
  5 20  1  0  0  0  0
  6 21  1  0  0  0  0
  7 22  1  0  0  0  0
  8 23  1  0  0  0  0
  9 24  1  0  0  0  0
 10 25  1  0  0  0  0
M  END
$$$$
