eMolecules_7725_6767927
  -OEChem-05261901563D

 36 38  0     1  0  0  0  0  0999 V2000
    4.9637    3.6454   -4.1555 C   0  0  0  0  0  0  0  0  0  0  0  0
    3.5938    3.8311   -4.3410 C   0  0  0  0  0  0  0  0  0  0  0  0
    5.4372    2.4587   -3.5958 C   0  0  0  0  0  0  0  0  0  0  0  0
    2.6973    2.8302   -3.9667 C   0  0  0  0  0  0  0  0  0  0  0  0
    4.5407    1.4577   -3.2215 C   0  0  0  0  0  0  0  0  0  0  0  0
    3.1707    1.6435   -3.4069 C   0  0  0  0  0  0  0  0  0  0  0  0
   -1.7824    0.8220    1.6975 C   0  0  0  0  0  0  0  0  0  0  0  0
   -1.5126    1.9481    0.7083 C   0  0  0  0  0  0  0  0  0  0  0  0
   -2.0139   -0.4977    0.9736 C   0  0  0  0  0  0  0  0  0  0  0  0
   -0.2697    1.6404   -0.1144 C   0  0  0  0  0  0  0  0  0  0  0  0
   -0.9231   -0.8505   -0.0302 C   0  0  1  0  0  0  0  0  0  0  0  0
   -0.3998    0.3209   -0.8998 C   0  0  2  0  0  0  0  0  0  0  0  0
    2.2069    0.5664   -3.0038 C   0  0  0  0  0  0  0  0  0  0  0  0
    0.2916   -1.3971    0.6516 N   0  0  0  0  0  0  0  0  0  0  0  0
    0.8902   -0.2727   -1.2895 N   0  0  0  0  0  0  0  0  0  0  0  0
    1.3068   -1.0789   -0.1558 N   0  3  0  0  0  0  0  0  0  0  0  0
    2.5971   -1.4098    0.1102 O   0  0  0  0  0  0  0  0  0  0  0  0
    1.8159    0.7753   -1.6515 O   0  0  0  0  0  0  0  0  0  0  0  0
    5.6617    4.4243   -4.4483 H   0  0  0  0  0  0  0  0  0  0  0  0
    3.2250    4.7546   -4.7778 H   0  0  0  0  0  0  0  0  0  0  0  0
    6.5037    2.3133   -3.4523 H   0  0  0  0  0  0  0  0  0  0  0  0
    1.6316    2.9837   -4.1148 H   0  0  0  0  0  0  0  0  0  0  0  0
    4.9187    0.5365   -2.7861 H   0  0  0  0  0  0  0  0  0  0  0  0
   -0.9373    0.7230    2.3895 H   0  0  0  0  0  0  0  0  0  0  0  0
   -2.6629    1.0665    2.3025 H   0  0  0  0  0  0  0  0  0  0  0  0
   -2.3765    2.0870    0.0474 H   0  0  0  0  0  0  0  0  0  0  0  0
   -1.3679    2.8877    1.2532 H   0  0  0  0  0  0  0  0  0  0  0  0
   -2.1289   -1.3026    1.7092 H   0  0  0  0  0  0  0  0  0  0  0  0
   -2.9671   -0.4262    0.4337 H   0  0  0  0  0  0  0  0  0  0  0  0
   -0.0792    2.4647   -0.8125 H   0  0  0  0  0  0  0  0  0  0  0  0
    0.5915    1.6084    0.5664 H   0  0  0  0  0  0  0  0  0  0  0  0
   -1.3071   -1.6514   -0.6799 H   0  0  0  0  0  0  0  0  0  0  0  0
   -1.0494    0.4670   -1.7702 H   0  0  0  0  0  0  0  0  0  0  0  0
    1.3152    0.5806   -3.6397 H   0  0  0  0  0  0  0  0  0  0  0  0
    2.6697   -0.4221   -3.0954 H   0  0  0  0  0  0  0  0  0  0  0  0
    3.0433   -1.0302   -0.6660 H   0  0  0  0  0  0  0  0  0  0  0  0
  1  2  1  0  0  0  0
  1  3  2  0  0  0  0
  2  4  2  0  0  0  0
  3  5  1  0  0  0  0
  4  6  1  0  0  0  0
  5  6  2  0  0  0  0
  6 13  1  0  0  0  0
  7  8  1  0  0  0  0
  7  9  1  0  0  0  0
  8 10  1  0  0  0  0
  9 11  1  0  0  0  0
 10 12  1  0  0  0  0
 11 12  1  0  0  0  0
 11 14  1  0  0  0  0
 12 15  1  0  0  0  0
 13 18  1  0  0  0  0
 14 16  2  0  0  0  0
 15 16  1  0  0  0  0
 15 18  1  0  0  0  0
 16 17  1  0  0  0  0
  1 19  1  0  0  0  0
  2 20  1  0  0  0  0
  3 21  1  0  0  0  0
  4 22  1  0  0  0  0
  5 23  1  0  0  0  0
  7 24  1  0  0  0  0
  7 25  1  0  0  0  0
  8 26  1  0  0  0  0
  8 27  1  0  0  0  0
  9 28  1  0  0  0  0
  9 29  1  0  0  0  0
 10 30  1  0  0  0  0
 10 31  1  0  0  0  0
 11 32  1  0  0  0  0
 12 33  1  0  0  0  0
 13 34  1  0  0  0  0
 13 35  1  0  0  0  0
 17 36  1  0  0  0  0
M  CHG  1  16   1
M  END
$$$$
