eMolecules_2379_1384788
  -OEChem-05261901553D

 26 27  0     0  0  0  0  0  0999 V2000
    1.8847   -1.0371   -0.1125 C   0  0  0  0  0  0  0  0  0  0  0  0
    1.3932    0.0652    0.5867 C   0  0  0  0  0  0  0  0  0  0  0  0
    2.3337   -2.1602    0.5824 C   0  0  0  0  0  0  0  0  0  0  0  0
    1.3507    0.0444    1.9808 C   0  0  0  0  0  0  0  0  0  0  0  0
    2.2912   -2.1810    1.9764 C   0  0  0  0  0  0  0  0  0  0  0  0
    4.9891   -0.7311    5.3557 C   0  0  0  0  0  0  0  0  0  0  0  0
    3.6487   -2.3959    5.2668 C   0  0  0  0  0  0  0  0  0  0  0  0
    1.7997   -1.0786    2.6757 C   0  0  0  0  0  0  0  0  0  0  0  0
    1.7548   -1.1014    4.1663 C   0  0  0  0  0  0  0  0  0  0  0  0
    3.9424   -0.2305    4.8069 N   0  0  0  0  0  0  0  0  0  0  0  0
    3.0857   -1.2971    4.7506 N   0  0  0  0  0  0  0  0  0  0  0  0
    4.8749   -2.0556    5.6629 N   0  3  0  0  0  0  0  0  0  0  0  0
    5.8504   -2.9026    6.2775 N   0  0  0  0  0  0  0  0  0  0  0  0
    6.7060   -3.5247    5.3683 N   0  3  0  0  0  0  0  0  0  0  0  0
    6.2279   -3.7607    4.2545 O   0  5  0  0  0  0  0  0  0  0  0  0
    7.8438   -3.8015    5.7643 O   0  0  0  0  0  0  0  0  0  0  0  0
    1.9165   -1.0214   -1.1980 H   0  0  0  0  0  0  0  0  0  0  0  0
    1.0425    0.9393    0.0459 H   0  0  0  0  0  0  0  0  0  0  0  0
    2.7154   -3.0191    0.0383 H   0  0  0  0  0  0  0  0  0  0  0  0
    0.9663    0.9080    2.5173 H   0  0  0  0  0  0  0  0  0  0  0  0
    2.6433   -3.0603    2.5094 H   0  0  0  0  0  0  0  0  0  0  0  0
    5.9134   -0.2289    5.5890 H   0  0  0  0  0  0  0  0  0  0  0  0
    3.1911   -3.3695    5.3437 H   0  0  0  0  0  0  0  0  0  0  0  0
    1.3443   -0.1655    4.5778 H   0  0  0  0  0  0  0  0  0  0  0  0
    1.1038   -1.9059    4.5441 H   0  0  0  0  0  0  0  0  0  0  0  0
    6.4894   -2.4076    6.9253 H   0  0  0  0  0  0  0  0  0  0  0  0
  1  2  1  0  0  0  0
  1  3  2  0  0  0  0
  2  4  2  0  0  0  0
  3  5  1  0  0  0  0
  4  8  1  0  0  0  0
  5  8  2  0  0  0  0
  6 10  2  0  0  0  0
  6 12  1  0  0  0  0
  7 11  1  0  0  0  0
  7 12  2  0  0  0  0
  8  9  1  0  0  0  0
  9 11  1  0  0  0  0
 10 11  1  0  0  0  0
 12 13  1  0  0  0  0
 13 14  1  0  0  0  0
 14 15  1  0  0  0  0
 14 16  2  0  0  0  0
  1 17  1  0  0  0  0
  2 18  1  0  0  0  0
  3 19  1  0  0  0  0
  4 20  1  0  0  0  0
  5 21  1  0  0  0  0
  6 22  1  0  0  0  0
  7 23  1  0  0  0  0
  9 24  1  0  0  0  0
  9 25  1  0  0  0  0
 13 26  1  0  0  0  0
M  CHG  3  12   1  14   1  15  -1
M  END
$$$$
