eMolecules_8556_7600482
  -OEChem-05261901553D

 24 24  0     1  0  0  0  0  0999 V2000
    1.4894   -6.4103    1.0683 C   0  0  0  0  0  0  0  0  0  0  0  0
    0.3209   -6.4329    1.8296 C   0  0  0  0  0  0  0  0  0  0  0  0
    2.3311   -5.2990    1.1153 C   0  0  0  0  0  0  0  0  0  0  0  0
   -0.0060   -5.3441    2.6380 C   0  0  0  0  0  0  0  0  0  0  0  0
    2.0042   -4.2102    1.9236 C   0  0  0  0  0  0  0  0  0  0  0  0
    0.8357   -4.2328    2.6850 C   0  0  0  0  0  0  0  0  0  0  0  0
    2.9261   -3.0350    1.9501 C   0  0  0  0  0  0  0  0  0  0  0  0
    1.8280   -4.1104    5.7122 C   0  0  0  0  0  0  0  0  0  0  0  0
    1.6671   -2.8860    4.8864 N   0  0  2  0  0  0  0  0  0  0  0  0
    0.4868   -1.6572    2.9262 O   0  0  0  0  0  0  0  0  0  0  0  0
   -0.8708   -3.2407    4.3373 O   0  0  0  0  0  0  0  0  0  0  0  0
    1.6315   -1.4211    5.8138 S   0  0  0  0  0  0  0  0  0  0  0  0
    0.3944   -2.8836    3.7084 S   0  0  0  0  0  0  0  0  0  0  0  0
    3.6345   -1.2252    6.0925 Cl  0  0  0  0  0  0  0  0  0  0  0  0
    1.7430   -7.2581    0.4384 H   0  0  0  0  0  0  0  0  0  0  0  0
   -0.3349   -7.2978    1.7921 H   0  0  0  0  0  0  0  0  0  0  0  0
    3.2390   -5.2916    0.5181 H   0  0  0  0  0  0  0  0  0  0  0  0
   -0.9197   -5.3740    3.2260 H   0  0  0  0  0  0  0  0  0  0  0  0
    2.6422   -2.3125    1.1764 H   0  0  0  0  0  0  0  0  0  0  0  0
    2.8993   -2.5326    2.9248 H   0  0  0  0  0  0  0  0  0  0  0  0
    3.9648   -3.3426    1.7776 H   0  0  0  0  0  0  0  0  0  0  0  0
    1.8430   -4.9962    5.0719 H   0  0  0  0  0  0  0  0  0  0  0  0
    0.9989   -4.2012    6.4192 H   0  0  0  0  0  0  0  0  0  0  0  0
    2.7647   -4.0667    6.2744 H   0  0  0  0  0  0  0  0  0  0  0  0
  1  2  1  0  0  0  0
  1  3  2  0  0  0  0
  2  4  2  0  0  0  0
  3  5  1  0  0  0  0
  4  6  1  0  0  0  0
  5  6  2  0  0  0  0
  5  7  1  0  0  0  0
  6 13  1  0  0  0  0
  8  9  1  0  0  0  0
  9 12  1  0  0  0  0
  9 13  1  0  0  0  0
 10 13  2  0  0  0  0
 11 13  2  0  0  0  0
 12 14  1  0  0  0  0
  1 15  1  0  0  0  0
  2 16  1  0  0  0  0
  3 17  1  0  0  0  0
  4 18  1  0  0  0  0
  7 19  1  0  0  0  0
  7 20  1  0  0  0  0
  7 21  1  0  0  0  0
  8 22  1  0  0  0  0
  8 23  1  0  0  0  0
  8 24  1  0  0  0  0
M  END
$$$$
