eMolecules_1003_3690
  -OEChem-05261901553D

 28 28  0     0  0  0  0  0  0999 V2000
   -2.6192    0.5992   -5.1260 C   0  0  0  0  0  0  0  0  0  0  0  0
   -0.4994    1.7349   -4.8942 C   0  0  0  0  0  0  0  0  0  0  0  0
   -2.1530   -0.0359   -6.2771 C   0  0  0  0  0  0  0  0  0  0  0  0
   -0.0332    1.0997   -6.0452 C   0  0  0  0  0  0  0  0  0  0  0  0
   -1.7924    1.4847   -4.4346 C   0  0  0  0  0  0  0  0  0  0  0  0
   -0.8600    0.2143   -6.7366 C   0  0  0  0  0  0  0  0  0  0  0  0
   -1.4325    0.1216   -1.4480 C   0  0  0  0  0  0  0  0  0  0  0  0
   -1.3749    3.0889   -0.0412 C   0  0  0  0  0  0  0  0  0  0  0  0
   -0.5205   -0.2860   -0.3226 C   0  0  0  0  0  0  0  0  0  0  0  0
   -0.5372    4.1540    0.5978 C   0  0  0  0  0  0  0  0  0  0  0  0
   -1.4527    1.5252   -1.7558 N   0  0  0  0  0  0  0  0  0  0  0  0
   -2.1090   -0.7062   -2.0516 O   0  0  0  0  0  0  0  0  0  0  0  0
   -2.4893    2.7668    0.3482 O   0  0  0  0  0  0  0  0  0  0  0  0
   -3.7754    1.9250   -2.7924 O   0  0  0  0  0  0  0  0  0  0  0  0
   -1.9999    3.6832   -3.1057 O   0  0  0  0  0  0  0  0  0  0  0  0
   -0.6977    2.5546   -1.1015 O   0  0  0  0  0  0  0  0  0  0  0  0
   -2.3834    2.2900   -2.9752 S   0  0  0  0  0  0  0  0  0  0  0  0
   -0.2849   -0.5693   -8.1567 Cl  0  0  0  0  0  0  0  0  0  0  0  0
   -3.6281    0.3971   -4.7767 H   0  0  0  0  0  0  0  0  0  0  0  0
    0.1531    2.4228   -4.3631 H   0  0  0  0  0  0  0  0  0  0  0  0
   -2.8084   -0.7234   -6.8057 H   0  0  0  0  0  0  0  0  0  0  0  0
    0.9766    1.3043   -6.3917 H   0  0  0  0  0  0  0  0  0  0  0  0
   -1.0599   -0.2514    0.6274 H   0  0  0  0  0  0  0  0  0  0  0  0
    0.3486    0.3757   -0.2865 H   0  0  0  0  0  0  0  0  0  0  0  0
   -0.1705   -1.3090   -0.4883 H   0  0  0  0  0  0  0  0  0  0  0  0
    0.0874    3.7061    1.3761 H   0  0  0  0  0  0  0  0  0  0  0  0
   -1.1827    4.9056    1.0594 H   0  0  0  0  0  0  0  0  0  0  0  0
    0.1140    4.6119   -0.1507 H   0  0  0  0  0  0  0  0  0  0  0  0
  1  3  2  0  0  0  0
  1  5  1  0  0  0  0
  2  4  1  0  0  0  0
  2  5  2  0  0  0  0
  3  6  1  0  0  0  0
  4  6  2  0  0  0  0
  5 17  1  0  0  0  0
  6 18  1  0  0  0  0
  7  9  1  0  0  0  0
  7 11  1  0  0  0  0
  7 12  2  0  0  0  0
  8 10  1  0  0  0  0
  8 13  2  0  0  0  0
  8 16  1  0  0  0  0
 11 16  1  0  0  0  0
 11 17  1  0  0  0  0
 14 17  2  0  0  0  0
 15 17  2  0  0  0  0
  1 19  1  0  0  0  0
  2 20  1  0  0  0  0
  3 21  1  0  0  0  0
  4 22  1  0  0  0  0
  9 23  1  0  0  0  0
  9 24  1  0  0  0  0
  9 25  1  0  0  0  0
 10 26  1  0  0  0  0
 10 27  1  0  0  0  0
 10 28  1  0  0  0  0
M  END
$$$$
