eMolecules_2565_1571733
  -OEChem-05261901553D

 21 22  0     0  0  0  0  0  0999 V2000
    0.0170   -2.0365   -0.6951 C   0  0  0  0  0  0  0  0  0  0  0  0
    0.5302   -0.9480    0.0075 C   0  0  0  0  0  0  0  0  0  0  0  0
    0.6993   -3.2523   -0.6935 C   0  0  0  0  0  0  0  0  0  0  0  0
    1.7255   -1.0709    0.7177 C   0  0  0  0  0  0  0  0  0  0  0  0
    1.8919   -3.3902    0.0269 C   0  0  0  0  0  0  0  0  0  0  0  0
    2.4075   -2.2931    0.7363 C   0  0  0  0  0  0  0  0  0  0  0  0
    4.3000   -3.6387    1.6100 C   0  0  0  0  0  0  0  0  0  0  0  0
    2.6847   -4.6670   -0.0430 C   0  0  0  0  0  0  0  0  0  0  0  0
    3.5158   -4.8754    1.2156 C   0  0  0  0  0  0  0  0  0  0  0  0
    3.6136   -2.4595    1.4397 N   0  0  0  0  0  0  0  0  0  0  0  0
    5.4161   -3.7335    2.1199 O   0  0  0  0  0  0  0  0  0  0  0  0
    4.2661   -1.2987    1.8861 O   0  0  0  0  0  0  0  0  0  0  0  0
   -0.9095   -1.9347   -1.2527 H   0  0  0  0  0  0  0  0  0  0  0  0
    0.0000    0.0001   -0.0002 H   0  0  0  0  0  0  0  0  0  0  0  0
    0.3013   -4.0873   -1.2642 H   0  0  0  0  0  0  0  0  0  0  0  0
    2.1007   -0.2046    1.2557 H   0  0  0  0  0  0  0  0  0  0  0  0
    2.0178   -5.5265   -0.1776 H   0  0  0  0  0  0  0  0  0  0  0  0
    3.3425   -4.6128   -0.9192 H   0  0  0  0  0  0  0  0  0  0  0  0
    4.2130   -5.7066    1.0641 H   0  0  0  0  0  0  0  0  0  0  0  0
    2.8662   -5.1312    2.0620 H   0  0  0  0  0  0  0  0  0  0  0  0
    5.0569   -1.6673    2.3337 H   0  0  0  0  0  0  0  0  0  0  0  0
  1  2  1  0  0  0  0
  1  3  2  0  0  0  0
  2  4  2  0  0  0  0
  3  5  1  0  0  0  0
  4  6  1  0  0  0  0
  5  6  2  0  0  0  0
  5  8  1  0  0  0  0
  6 10  1  0  0  0  0
  7  9  1  0  0  0  0
  7 10  1  0  0  0  0
  7 11  2  0  0  0  0
  8  9  1  0  0  0  0
 10 12  1  0  0  0  0
  1 13  1  0  0  0  0
  2 14  1  0  0  0  0
  3 15  1  0  0  0  0
  4 16  1  0  0  0  0
  8 17  1  0  0  0  0
  8 18  1  0  0  0  0
  9 19  1  0  0  0  0
  9 20  1  0  0  0  0
 12 21  1  0  0  0  0
M  END
$$$$
