eMolecules_4366_3384154
  -OEChem-05261901553D

 13 12  0     0  0  0  0  0  0999 V2000
   -2.6526   -0.5335    0.6898 C   0  0  0  0  0  0  0  0  0  0  0  0
   -0.3557   -1.0061   -0.2458 C   0  0  0  0  0  0  0  0  0  0  0  0
   -1.4439   -1.4492    0.7152 C   0  0  0  0  0  0  0  0  0  0  0  0
   -3.5784   -0.9422   -0.2392 N   0  0  0  0  0  0  0  0  0  0  0  0
   -2.7669    0.4504    1.4160 O   0  0  0  0  0  0  0  0  0  0  0  0
   -4.7311   -0.1520   -0.3400 O   0  0  0  0  0  0  0  0  0  0  0  0
   -0.0110    0.0062   -0.0099 H   0  0  0  0  0  0  0  0  0  0  0  0
    0.5097   -1.6753   -0.1953 H   0  0  0  0  0  0  0  0  0  0  0  0
   -0.7306   -1.0089   -1.2738 H   0  0  0  0  0  0  0  0  0  0  0  0
   -1.7707   -2.4632    0.4581 H   0  0  0  0  0  0  0  0  0  0  0  0
   -1.0457   -1.4707    1.7361 H   0  0  0  0  0  0  0  0  0  0  0  0
   -3.4364   -1.7641   -0.8159 H   0  0  0  0  0  0  0  0  0  0  0  0
   -5.2103   -0.6301   -1.0376 H   0  0  0  0  0  0  0  0  0  0  0  0
  1  3  1  0  0  0  0
  1  4  1  0  0  0  0
  1  5  2  0  0  0  0
  2  3  1  0  0  0  0
  4  6  1  0  0  0  0
  2  7  1  0  0  0  0
  2  8  1  0  0  0  0
  2  9  1  0  0  0  0
  3 10  1  0  0  0  0
  3 11  1  0  0  0  0
  4 12  1  0  0  0  0
  6 13  1  0  0  0  0
M  END
$$$$
