eMolecules_2844_1851310
  -OEChem-05261901553D

 13 13  0     0  0  0  0  0  0999 V2000
   -3.4745   -2.0032    2.5019 C   0  0  0  0  0  0  0  0  0  0  0  0
    0.5881    0.8905    1.8661 C   0  0  0  0  0  0  0  0  0  0  0  0
   -0.2066    0.1010    1.0601 C   0  0  0  0  0  0  0  0  0  0  0  0
    0.2261    0.9401    3.1967 C   0  0  0  0  0  0  0  0  0  0  0  0
   -1.5246   -0.4612    2.8247 C   0  0  0  0  0  0  0  0  0  0  0  0
   -4.1579   -2.6742    1.8468 N   0  0  0  0  0  0  0  0  0  0  0  0
   -1.2746   -0.5912    1.5079 N   0  0  0  0  0  0  0  0  0  0  0  0
   -0.8283    0.2746    3.7121 N   0  0  0  0  0  0  0  0  0  0  0  0
   -2.6350   -1.1732    3.3292 N   0  0  0  0  0  0  0  0  0  0  0  0
    1.4385    1.4366    1.4806 H   0  0  0  0  0  0  0  0  0  0  0  0
   -0.0000   -0.0004    0.0000 H   0  0  0  0  0  0  0  0  0  0  0  0
    0.7904    1.5352    3.9068 H   0  0  0  0  0  0  0  0  0  0  0  0
   -2.8206   -1.0732    4.3182 H   0  0  0  0  0  0  0  0  0  0  0  0
  1  6  3  0  0  0  0
  1  9  1  0  0  0  0
  2  3  1  0  0  0  0
  2  4  2  0  0  0  0
  3  7  2  0  0  0  0
  4  8  1  0  0  0  0
  5  7  1  0  0  0  0
  5  8  2  0  0  0  0
  5  9  1  0  0  0  0
  2 10  1  0  0  0  0
  3 11  1  0  0  0  0
  4 12  1  0  0  0  0
  9 13  1  0  0  0  0
M  END
$$$$
