eMolecules_1190_193472
  -OEChem-05261901553D

 10  9  0     0  0  0  0  0  0999 V2000
    1.0277    0.1348    0.3510 C   0  0  0  0  0  0  0  0  0  0  0  0
    2.3857    0.4585    2.3034 C   0  0  0  0  0  0  0  0  0  0  0  0
    1.0302    0.2824    1.8002 N   0  0  0  0  0  0  0  0  0  0  0  0
    1.6257   -0.7330    0.0608 H   0  0  0  0  0  0  0  0  0  0  0  0
    1.4498    1.0265   -0.1204 H   0  0  0  0  0  0  0  0  0  0  0  0
    0.0062   -0.0039   -0.0131 H   0  0  0  0  0  0  0  0  0  0  0  0
    3.0004   -0.4053    2.0373 H   0  0  0  0  0  0  0  0  0  0  0  0
    2.3744    0.5605    3.3920 H   0  0  0  0  0  0  0  0  0  0  0  0
    2.8354    1.3568    1.8719 H   0  0  0  0  0  0  0  0  0  0  0  0
    0.4693    1.0948    2.0556 H   0  0  0  0  0  0  0  0  0  0  0  0
  1  3  1  0  0  0  0
  2  3  1  0  0  0  0
  1  4  1  0  0  0  0
  1  5  1  0  0  0  0
  1  6  1  0  0  0  0
  2  7  1  0  0  0  0
  2  8  1  0  0  0  0
  2  9  1  0  0  0  0
  3 10  1  0  0  0  0
M  END
$$$$
