eMolecules_2744_1750516
  -OEChem-05261901553D

 21 22  0     0  0  0  0  0  0999 V2000
    1.7038   -1.2520   -0.4441 C   0  0  0  0  0  0  0  0  0  0  0  0
    0.7548   -0.6638    0.4135 C   0  0  0  0  0  0  0  0  0  0  0  0
    2.6897   -2.1109    0.0535 C   0  0  0  0  0  0  0  0  0  0  0  0
    0.7709   -0.9239    1.7846 C   0  0  0  0  0  0  0  0  0  0  0  0
    2.7032   -2.3629    1.4138 C   0  0  0  0  0  0  0  0  0  0  0  0
    1.7509   -1.7751    2.2510 C   0  0  0  0  0  0  0  0  0  0  0  0
    3.6659   -3.2335    2.1219 C   0  0  0  0  0  0  0  0  0  0  0  0
    5.5051   -3.5746    5.0996 C   0  0  0  0  0  0  0  0  0  0  0  0
    3.3743   -3.1121    3.5145 N   0  0  0  0  0  0  0  0  0  0  0  0
    4.5262   -3.9123    1.5906 O   0  0  0  0  0  0  0  0  0  0  0  0
    0.8683   -3.1463    4.2509 O   0  0  0  0  0  0  0  0  0  0  0  0
    2.2848   -1.0701    4.6868 O   0  0  0  0  0  0  0  0  0  0  0  0
    3.8821   -4.2637    4.6440 S   0  0  0  0  0  0  0  0  0  0  0  0
    1.9575   -2.2525    3.9200 S   0  0  0  0  0  0  0  0  0  0  0  0
    6.2582   -4.6530    6.3203 Cl  0  0  0  0  0  0  0  0  0  0  0  0
    6.5941   -3.4892    3.6842 Cl  0  0  0  0  0  0  0  0  0  0  0  0
    5.3378   -1.9474    5.8214 Cl  0  0  0  0  0  0  0  0  0  0  0  0
    1.6678   -1.0352   -1.5086 H   0  0  0  0  0  0  0  0  0  0  0  0
    0.0017    0.0023    0.0006 H   0  0  0  0  0  0  0  0  0  0  0  0
    3.4136   -2.5612   -0.6170 H   0  0  0  0  0  0  0  0  0  0  0  0
    0.0427   -0.4698    2.4462 H   0  0  0  0  0  0  0  0  0  0  0  0
  1  2  1  0  0  0  0
  1  3  2  0  0  0  0
  2  4  2  0  0  0  0
  3  5  1  0  0  0  0
  4  6  1  0  0  0  0
  5  6  2  0  0  0  0
  5  7  1  0  0  0  0
  6 14  1  0  0  0  0
  7  9  1  0  0  0  0
  7 10  2  0  0  0  0
  8 13  1  0  0  0  0
  8 15  1  0  0  0  0
  8 16  1  0  0  0  0
  8 17  1  0  0  0  0
  9 13  1  0  0  0  0
  9 14  1  0  0  0  0
 11 14  2  0  0  0  0
 12 14  2  0  0  0  0
  1 18  1  0  0  0  0
  2 19  1  0  0  0  0
  3 20  1  0  0  0  0
  4 21  1  0  0  0  0
M  END
$$$$
