eMolecules_1093_95696
  -OEChem-05261901553D

 26 26  0     1  0  0  0  0  0999 V2000
   -4.0522   -0.6228    3.2757 C   0  0  0  0  0  0  0  0  0  0  0  0
   -3.6018    0.6526    2.9349 C   0  0  0  0  0  0  0  0  0  0  0  0
   -3.8683   -1.6866    2.3924 C   0  0  0  0  0  0  0  0  0  0  0  0
   -2.9677    0.8643    1.7107 C   0  0  0  0  0  0  0  0  0  0  0  0
   -3.2342   -1.4749    1.1682 C   0  0  0  0  0  0  0  0  0  0  0  0
   -2.7838   -0.1995    0.8273 C   0  0  0  0  0  0  0  0  0  0  0  0
    0.0306   -1.5598    0.1786 C   0  0  0  0  0  0  0  0  0  0  0  0
    1.9190    0.8377   -0.0412 C   0  0  0  0  0  0  0  0  0  0  0  0
    0.4546    0.8869    0.3287 C   0  0  0  0  0  0  0  0  0  0  0  0
   -0.3155   -0.2067   -0.3432 N   0  0  2  0  0  0  0  0  0  0  0  0
   -2.4468   -0.9633   -1.6352 O   0  0  0  0  0  0  0  0  0  0  0  0
   -2.1793    1.4634   -1.0841 O   0  0  0  0  0  0  0  0  0  0  0  0
    2.0660    1.0421   -1.3733 F   0  0  0  0  0  0  0  0  0  0  0  0
    2.5673    1.8559    0.5815 F   0  0  0  0  0  0  0  0  0  0  0  0
    0.3260    0.8018    1.6779 F   0  0  0  0  0  0  0  0  0  0  0  0
   -0.0181    2.1116   -0.0258 F   0  0  0  0  0  0  0  0  0  0  0  0
   -1.9814    0.0705   -0.7287 S   0  0  0  0  0  0  0  0  0  0  0  0
   -4.5467   -0.7882    4.2286 H   0  0  0  0  0  0  0  0  0  0  0  0
   -3.7457    1.4813    3.6220 H   0  0  0  0  0  0  0  0  0  0  0  0
   -4.2197   -2.6792    2.6578 H   0  0  0  0  0  0  0  0  0  0  0  0
   -2.6215    1.8621    1.4547 H   0  0  0  0  0  0  0  0  0  0  0  0
   -3.0974   -2.3104    0.4871 H   0  0  0  0  0  0  0  0  0  0  0  0
   -0.5547   -2.3236   -0.3400 H   0  0  0  0  0  0  0  0  0  0  0  0
   -0.1842   -1.6185    1.2491 H   0  0  0  0  0  0  0  0  0  0  0  0
    1.0932   -1.7646    0.0227 H   0  0  0  0  0  0  0  0  0  0  0  0
    2.4122   -0.0967    0.2359 H   0  0  0  0  0  0  0  0  0  0  0  0
  1  2  1  0  0  0  0
  1  3  2  0  0  0  0
  2  4  2  0  0  0  0
  3  5  1  0  0  0  0
  4  6  1  0  0  0  0
  5  6  2  0  0  0  0
  6 17  1  0  0  0  0
  7 10  1  0  0  0  0
  8  9  1  0  0  0  0
  8 13  1  0  0  0  0
  8 14  1  0  0  0  0
  9 10  1  0  0  0  0
  9 15  1  0  0  0  0
  9 16  1  0  0  0  0
 10 17  1  0  0  0  0
 11 17  2  0  0  0  0
 12 17  2  0  0  0  0
  1 18  1  0  0  0  0
  2 19  1  0  0  0  0
  3 20  1  0  0  0  0
  4 21  1  0  0  0  0
  5 22  1  0  0  0  0
  7 23  1  0  0  0  0
  7 24  1  0  0  0  0
  7 25  1  0  0  0  0
  8 26  1  0  0  0  0
M  END
$$$$
