eMolecules_1088_90790
  -OEChem-05261901543D

 15 15  0     0  0  0  0  0  0999 V2000
    0.4573   -0.7150    0.6692 C   0  0  0  0  0  0  0  0  0  0  0  0
   -1.1518   -0.0567    2.1053 C   0  0  0  0  0  0  0  0  0  0  0  0
    2.1038   -2.5156    0.9952 C   0  0  0  0  0  0  0  0  0  0  0  0
    1.9352   -1.3661   -1.1892 C   0  0  0  0  0  0  0  0  0  0  0  0
   -0.0946   -0.9018    1.8234 N   0  0  0  0  0  0  0  0  0  0  0  0
    1.5121   -1.4460    0.2026 N   0  0  0  0  0  0  0  0  0  0  0  0
   -2.0273   -0.1015    3.5414 S   0  0  0  0  0  0  0  0  0  0  0  0
   -0.1062    0.5122   -0.4245 S   0  0  0  0  0  0  0  0  0  0  0  0
   -1.5716    1.1266    0.8470 S   0  0  0  0  0  0  0  0  0  0  0  0
    2.9309   -2.9753    0.4480 H   0  0  0  0  0  0  0  0  0  0  0  0
    1.3559   -3.2830    1.2125 H   0  0  0  0  0  0  0  0  0  0  0  0
    2.4843   -2.1194    1.9405 H   0  0  0  0  0  0  0  0  0  0  0  0
    2.7914   -2.0239   -1.3600 H   0  0  0  0  0  0  0  0  0  0  0  0
    2.2236   -0.3413   -1.4384 H   0  0  0  0  0  0  0  0  0  0  0  0
    1.1196   -1.6713   -1.8503 H   0  0  0  0  0  0  0  0  0  0  0  0
  1  5  2  0  0  0  0
  1  6  1  0  0  0  0
  1  8  1  0  0  0  0
  2  5  1  0  0  0  0
  2  7  2  0  0  0  0
  2  9  1  0  0  0  0
  3  6  1  0  0  0  0
  4  6  1  0  0  0  0
  8  9  1  0  0  0  0
  3 10  1  0  0  0  0
  3 11  1  0  0  0  0
  3 12  1  0  0  0  0
  4 13  1  0  0  0  0
  4 14  1  0  0  0  0
  4 15  1  0  0  0  0
M  END
$$$$
