eMolecules_1523_526861
  -OEChem-05261901543D

 36 36  0     0  0  0  0  0  0999 V2000
    6.4796   -1.2740   -0.5521 C   0  0  0  0  0  0  0  0  0  0  0  0
    5.2203   -1.3330    0.0344 C   0  0  0  0  0  0  0  0  0  0  0  0
    6.9100    0.7054    0.6944 C   0  0  0  0  0  0  0  0  0  0  0  0
    7.3466   -0.2386   -0.2211 C   0  0  0  0  0  0  0  0  0  0  0  0
    4.8789   -0.3402    0.9387 C   0  0  0  0  0  0  0  0  0  0  0  0
    8.6998   -0.1476   -0.8319 C   0  0  0  0  0  0  0  0  0  0  0  0
   -0.4133   -1.2298    1.6198 C   0  0  0  0  0  0  0  0  0  0  0  0
    0.8698    0.9176    1.3797 C   0  0  0  0  0  0  0  0  0  0  0  0
    3.2473   -2.1430    3.7687 C   0  0  0  0  0  0  0  0  0  0  0  0
    3.2340   -3.9434    2.0154 C   0  0  0  0  0  0  0  0  0  0  0  0
    0.8956   -0.5070    1.9278 C   0  0  0  0  0  0  0  0  0  0  0  0
    2.5165   -2.7079    2.5533 C   0  0  0  0  0  0  0  0  0  0  0  0
    5.6942    0.6811    1.2849 N   0  0  0  0  0  0  0  0  0  0  0  0
    3.5936   -0.4148    1.5276 N   0  0  0  0  0  0  0  0  0  0  0  0
    2.3513   -1.4420    1.2407 P   0  0  0  0  0  0  0  0  0  0  0  0
    6.7768   -2.0379   -1.2652 H   0  0  0  0  0  0  0  0  0  0  0  0
    4.5371   -2.1375   -0.2184 H   0  0  0  0  0  0  0  0  0  0  0  0
    7.5423    1.5364    0.9913 H   0  0  0  0  0  0  0  0  0  0  0  0
    8.6666    0.4429   -1.7573 H   0  0  0  0  0  0  0  0  0  0  0  0
    9.4193    0.3241   -0.1477 H   0  0  0  0  0  0  0  0  0  0  0  0
    9.1006   -1.1426   -1.0721 H   0  0  0  0  0  0  0  0  0  0  0  0
   -0.5727   -1.2930    0.5378 H   0  0  0  0  0  0  0  0  0  0  0  0
   -0.4177   -2.2514    2.0175 H   0  0  0  0  0  0  0  0  0  0  0  0
   -1.2719   -0.7008    2.0487 H   0  0  0  0  0  0  0  0  0  0  0  0
    0.7435    0.9241    0.2910 H   0  0  0  0  0  0  0  0  0  0  0  0
    1.8094    1.4340    1.6052 H   0  0  0  0  0  0  0  0  0  0  0  0
    0.0530    1.5058    1.8141 H   0  0  0  0  0  0  0  0  0  0  0  0
    4.2668   -1.8448    3.5006 H   0  0  0  0  0  0  0  0  0  0  0  0
    2.7387   -1.2617    4.1765 H   0  0  0  0  0  0  0  0  0  0  0  0
    3.3220   -2.8863    4.5706 H   0  0  0  0  0  0  0  0  0  0  0  0
    4.2558   -3.7052    1.6984 H   0  0  0  0  0  0  0  0  0  0  0  0
    2.7051   -4.3476    1.1453 H   0  0  0  0  0  0  0  0  0  0  0  0
    3.2947   -4.7383    2.7680 H   0  0  0  0  0  0  0  0  0  0  0  0
    1.0232   -0.4617    3.0155 H   0  0  0  0  0  0  0  0  0  0  0  0
    1.5031   -2.9953    2.8562 H   0  0  0  0  0  0  0  0  0  0  0  0
    3.4368    0.3555    2.1750 H   0  0  0  0  0  0  0  0  0  0  0  0
  1  2  2  0  0  0  0
  1  4  1  0  0  0  0
  2  5  1  0  0  0  0
  3  4  2  0  0  0  0
  3 13  1  0  0  0  0
  4  6  1  0  0  0  0
  5 13  2  0  0  0  0
  5 14  1  0  0  0  0
  7 11  1  0  0  0  0
  8 11  1  0  0  0  0
  9 12  1  0  0  0  0
 10 12  1  0  0  0  0
 11 15  1  0  0  0  0
 12 15  1  0  0  0  0
 14 15  1  0  0  0  0
  1 16  1  0  0  0  0
  2 17  1  0  0  0  0
  3 18  1  0  0  0  0
  6 19  1  0  0  0  0
  6 20  1  0  0  0  0
  6 21  1  0  0  0  0
  7 22  1  0  0  0  0
  7 23  1  0  0  0  0
  7 24  1  0  0  0  0
  8 25  1  0  0  0  0
  8 26  1  0  0  0  0
  8 27  1  0  0  0  0
  9 28  1  0  0  0  0
  9 29  1  0  0  0  0
  9 30  1  0  0  0  0
 10 31  1  0  0  0  0
 10 32  1  0  0  0  0
 10 33  1  0  0  0  0
 11 34  1  0  0  0  0
 12 35  1  0  0  0  0
 14 36  1  0  0  0  0
M  END
$$$$
