eMolecules_1524_527306
  -OEChem-05261901553D

 27 29  0     0  0  0  0  0  0999 V2000
   -2.0921   -6.7589   -0.5364 C   0  0  0  0  0  0  0  0  0  0  0  0
   -1.3026    0.5814    1.6164 C   0  0  0  0  0  0  0  0  0  0  0  0
   -1.0753   -5.8532   -0.2339 C   0  0  0  0  0  0  0  0  0  0  0  0
   -3.4007   -6.5002   -0.1285 C   0  0  0  0  0  0  0  0  0  0  0  0
   -0.7853   -0.3229    0.6786 C   0  0  0  0  0  0  0  0  0  0  0  0
   -2.3321    0.1958    2.4727 C   0  0  0  0  0  0  0  0  0  0  0  0
   -1.3670   -4.6890    0.4767 C   0  0  0  0  0  0  0  0  0  0  0  0
   -3.6924   -5.3359    0.5822 C   0  0  0  0  0  0  0  0  0  0  0  0
   -1.2771   -1.6306    0.5946 C   0  0  0  0  0  0  0  0  0  0  0  0
   -2.8092   -1.1017    2.3797 C   0  0  0  0  0  0  0  0  0  0  0  0
   -2.6756   -4.4303    0.8848 C   0  0  0  0  0  0  0  0  0  0  0  0
   -2.2738   -2.0236    1.4761 C   0  0  0  0  0  0  0  0  0  0  0  0
   -4.0042   -3.1297    2.5677 C   0  0  0  0  0  0  0  0  0  0  0  0
   -3.9343   -1.7176    3.1414 C   0  0  0  0  0  0  0  0  0  0  0  0
   -2.9722   -3.2453    1.6079 N   0  0  0  0  0  0  0  0  0  0  0  0
   -4.8055   -3.9708    2.9506 O   0  0  0  0  0  0  0  0  0  0  0  0
   -1.8654   -7.6652   -1.0905 H   0  0  0  0  0  0  0  0  0  0  0  0
   -0.9099    1.5932    1.6628 H   0  0  0  0  0  0  0  0  0  0  0  0
   -0.0565   -6.0539   -0.5521 H   0  0  0  0  0  0  0  0  0  0  0  0
   -4.1924   -7.2051   -0.3651 H   0  0  0  0  0  0  0  0  0  0  0  0
    0.0059   -0.0030    0.0055 H   0  0  0  0  0  0  0  0  0  0  0  0
   -2.7542    0.9005    3.1809 H   0  0  0  0  0  0  0  0  0  0  0  0
   -0.5664   -3.9904    0.7067 H   0  0  0  0  0  0  0  0  0  0  0  0
   -4.7159   -5.1448    0.8949 H   0  0  0  0  0  0  0  0  0  0  0  0
   -0.8683   -2.3160   -0.1406 H   0  0  0  0  0  0  0  0  0  0  0  0
   -3.7132   -1.7668    4.2108 H   0  0  0  0  0  0  0  0  0  0  0  0
   -4.8781   -1.2004    2.9496 H   0  0  0  0  0  0  0  0  0  0  0  0
  1  3  1  0  0  0  0
  1  4  2  0  0  0  0
  2  5  1  0  0  0  0
  2  6  2  0  0  0  0
  3  7  2  0  0  0  0
  4  8  1  0  0  0  0
  5  9  2  0  0  0  0
  6 10  1  0  0  0  0
  7 11  1  0  0  0  0
  8 11  2  0  0  0  0
  9 12  1  0  0  0  0
 10 12  2  0  0  0  0
 10 14  1  0  0  0  0
 11 15  1  0  0  0  0
 12 15  1  0  0  0  0
 13 14  1  0  0  0  0
 13 15  1  0  0  0  0
 13 16  2  0  0  0  0
  1 17  1  0  0  0  0
  2 18  1  0  0  0  0
  3 19  1  0  0  0  0
  4 20  1  0  0  0  0
  5 21  1  0  0  0  0
  6 22  1  0  0  0  0
  7 23  1  0  0  0  0
  8 24  1  0  0  0  0
  9 25  1  0  0  0  0
 14 26  1  0  0  0  0
 14 27  1  0  0  0  0
M  END
$$$$
