eMolecules_8963_8011952
  -OEChem-05261901553D

  9  8  0     0  0  0  0  0  0999 V2000
    0.8028    1.2518   -0.3641 C   0  0  0  0  0  0  0  0  0  0  0  0
   -0.0400   -0.4797   -1.4535 C   0  0  0  0  0  0  0  0  0  0  0  0
   -0.3814   -0.4515    1.0130 C   0  0  0  0  0  0  0  0  0  0  0  0
    1.2828    2.3045   -0.4596 N   0  0  0  0  0  0  0  0  0  0  0  0
   -0.2912   -0.9290   -2.4940 N   0  0  0  0  0  0  0  0  0  0  0  0
    0.2469    0.0307   -0.2398 N   0  0  0  0  0  0  0  0  0  0  0  0
   -1.4437   -0.1939    1.0239 H   0  0  0  0  0  0  0  0  0  0  0  0
    0.1013    0.0087    1.8794 H   0  0  0  0  0  0  0  0  0  0  0  0
   -0.2818   -1.5374    1.0921 H   0  0  0  0  0  0  0  0  0  0  0  0
  1  4  3  0  0  0  0
  1  6  1  0  0  0  0
  2  5  3  0  0  0  0
  2  6  1  0  0  0  0
  3  6  1  0  0  0  0
  3  7  1  0  0  0  0
  3  8  1  0  0  0  0
  3  9  1  0  0  0  0
M  END
$$$$
