eMolecules_2374_1379840
  -OEChem-05261901553D

 33 35  0     1  0  0  0  0  0999 V2000
   -7.5219   -7.6772   -0.6540 C   0  0  0  0  0  0  0  0  0  0  0  0
   -2.0153    0.3606   -0.6919 C   0  0  0  0  0  0  0  0  0  0  0  0
   -0.9516   -0.4562   -0.2609 C   0  0  0  0  0  0  0  0  0  0  0  0
   -7.6878   -6.5052   -1.3918 C   0  0  0  0  0  0  0  0  0  0  0  0
   -6.5254   -7.7536    0.3191 C   0  0  0  0  0  0  0  0  0  0  0  0
   -3.2526   -0.1924   -1.0335 C   0  0  0  0  0  0  0  0  0  0  0  0
   -1.1043   -1.8421   -0.1631 C   0  0  0  0  0  0  0  0  0  0  0  0
   -6.8572   -5.4095   -1.1566 C   0  0  0  0  0  0  0  0  0  0  0  0
   -5.6948   -6.6579    0.5543 C   0  0  0  0  0  0  0  0  0  0  0  0
   -3.3854   -1.5636   -0.9330 C   0  0  0  0  0  0  0  0  0  0  0  0
   -2.3327   -2.3720   -0.5067 C   0  0  0  0  0  0  0  0  0  0  0  0
   -5.8607   -5.4859   -0.1836 C   0  0  0  0  0  0  0  0  0  0  0  0
   -4.5655   -2.3842   -1.2198 C   0  0  0  0  0  0  0  0  0  0  0  0
   -2.7529   -3.7762   -0.4863 C   0  0  0  0  0  0  0  0  0  0  0  0
   -4.1871   -3.8355   -0.9809 C   0  0  0  0  0  0  0  0  0  0  0  0
   -5.0059   -3.7579    1.3797 C   0  0  0  0  0  0  0  0  0  0  0  0
   -5.0243   -4.3830    0.0536 N   0  0  3  0  0  0  0  0  0  0  0  0
   -5.6366   -1.9516   -1.6002 O   0  0  0  0  0  0  0  0  0  0  0  0
   -2.0475   -4.7077   -0.1491 O   0  0  0  0  0  0  0  0  0  0  0  0
   -4.2786   -4.5619   -2.1755 O   0  0  0  0  0  0  0  0  0  0  0  0
   -8.1686   -8.5304   -0.8374 H   0  0  0  0  0  0  0  0  0  0  0  0
   -1.8708    1.4359   -0.7576 H   0  0  0  0  0  0  0  0  0  0  0  0
    0.0003   -0.0001   -0.0018 H   0  0  0  0  0  0  0  0  0  0  0  0
   -8.4635   -6.4459   -2.1494 H   0  0  0  0  0  0  0  0  0  0  0  0
   -6.3964   -8.6664    0.8936 H   0  0  0  0  0  0  0  0  0  0  0  0
   -4.0699    0.4399   -1.3607 H   0  0  0  0  0  0  0  0  0  0  0  0
   -0.2840   -2.4676    0.1700 H   0  0  0  0  0  0  0  0  0  0  0  0
   -6.9946   -4.5009   -1.7371 H   0  0  0  0  0  0  0  0  0  0  0  0
   -4.9218   -6.7290    1.3154 H   0  0  0  0  0  0  0  0  0  0  0  0
   -4.3049   -2.9192    1.3900 H   0  0  0  0  0  0  0  0  0  0  0  0
   -4.6964   -4.4845    2.1358 H   0  0  0  0  0  0  0  0  0  0  0  0
   -6.0019   -3.3873    1.6367 H   0  0  0  0  0  0  0  0  0  0  0  0
   -3.6639   -4.1595   -2.8194 H   0  0  0  0  0  0  0  0  0  0  0  0
  1  4  1  0  0  0  0
  1  5  2  0  0  0  0
  2  3  1  0  0  0  0
  2  6  2  0  0  0  0
  3  7  2  0  0  0  0
  4  8  2  0  0  0  0
  5  9  1  0  0  0  0
  6 10  1  0  0  0  0
  7 11  1  0  0  0  0
  8 12  1  0  0  0  0
  9 12  2  0  0  0  0
 10 11  2  0  0  0  0
 10 13  1  0  0  0  0
 11 14  1  0  0  0  0
 12 17  1  0  0  0  0
 13 15  1  0  0  0  0
 13 18  2  0  0  0  0
 14 15  1  0  0  0  0
 14 19  2  0  0  0  0
 15 17  1  0  0  0  0
 15 20  1  0  0  0  0
 16 17  1  0  0  0  0
  1 21  1  0  0  0  0
  2 22  1  0  0  0  0
  3 23  1  0  0  0  0
  4 24  1  0  0  0  0
  5 25  1  0  0  0  0
  6 26  1  0  0  0  0
  7 27  1  0  0  0  0
  8 28  1  0  0  0  0
  9 29  1  0  0  0  0
 16 30  1  0  0  0  0
 16 31  1  0  0  0  0
 16 32  1  0  0  0  0
 20 33  1  0  0  0  0
M  END
$$$$
