eMolecules_4068_3084837
  -OEChem-05261901543D

 32 31  0     0  0  0  0  0  0999 V2000
    1.8316   -1.4134    0.9957 C   0  0  0  0  0  0  0  0  0  0  0  0
    2.6197   -2.4955    0.9832 C   0  0  0  0  0  0  0  0  0  0  0  0
    0.3897   -1.4989    1.0625 C   0  0  0  0  0  0  0  0  0  0  0  0
   -0.4097   -0.4215    1.0757 C   0  0  0  0  0  0  0  0  0  0  0  0
   -2.5525    0.1625   -0.0328 C   0  0  0  0  0  0  0  0  0  0  0  0
   -3.3571    1.2321    0.0571 C   0  0  0  0  0  0  0  0  0  0  0  0
    4.0844   -2.3115    0.9110 C   0  0  0  0  0  0  0  0  0  0  0  0
   -2.1099    3.5389   -1.5519 C   0  0  0  0  0  0  0  0  0  0  0  0
   -1.9076   -0.4983    1.1504 C   0  0  0  0  0  0  0  0  0  0  0  0
   -4.0064    1.8897   -1.1263 C   0  0  0  0  0  0  0  0  0  0  0  0
   -3.5986    3.3561   -1.2902 C   0  0  0  0  0  0  0  0  0  0  0  0
    4.8944   -3.3206    0.8983 N   0  0  0  0  0  0  0  0  0  0  0  0
    6.9271   -3.9103    0.3391 N   0  0  0  0  0  0  0  0  0  0  0  0
    6.1875   -2.9575    0.8237 N   0  0  0  0  0  0  0  0  0  0  0  0
    7.8914   -3.4292   -0.2651 O   0  0  0  0  0  0  0  0  0  0  0  0
    2.2656   -0.4173    0.9542 H   0  0  0  0  0  0  0  0  0  0  0  0
    2.2324   -3.5073    1.0230 H   0  0  0  0  0  0  0  0  0  0  0  0
   -0.0497   -2.4926    1.1015 H   0  0  0  0  0  0  0  0  0  0  0  0
    0.0258    0.5755    1.0427 H   0  0  0  0  0  0  0  0  0  0  0  0
   -2.3485   -0.2699   -1.0097 H   0  0  0  0  0  0  0  0  0  0  0  0
   -3.5697    1.6612    1.0331 H   0  0  0  0  0  0  0  0  0  0  0  0
    4.4416   -1.2646    0.8711 H   0  0  0  0  0  0  0  0  0  0  0  0
   -1.8122    2.9707   -2.4390 H   0  0  0  0  0  0  0  0  0  0  0  0
   -1.8590    4.5891   -1.7291 H   0  0  0  0  0  0  0  0  0  0  0  0
   -1.5161    3.1800   -0.7052 H   0  0  0  0  0  0  0  0  0  0  0  0
   -2.2467   -1.5405    1.1918 H   0  0  0  0  0  0  0  0  0  0  0  0
   -2.2312   -0.0290    2.0873 H   0  0  0  0  0  0  0  0  0  0  0  0
   -5.0930    1.8400   -0.9864 H   0  0  0  0  0  0  0  0  0  0  0  0
   -3.7857    1.3427   -2.0511 H   0  0  0  0  0  0  0  0  0  0  0  0
   -3.8835    3.9297   -0.3999 H   0  0  0  0  0  0  0  0  0  0  0  0
   -4.1565    3.7816   -2.1329 H   0  0  0  0  0  0  0  0  0  0  0  0
    6.3374   -2.0821    0.3247 H   0  0  0  0  0  0  0  0  0  0  0  0
  1  2  2  0  0  0  0
  1  3  1  0  0  0  0
  2  7  1  0  0  0  0
  3  4  2  0  0  0  0
  4  9  1  0  0  0  0
  5  6  2  0  0  0  0
  5  9  1  0  0  0  0
  6 10  1  0  0  0  0
  7 12  2  0  0  0  0
  8 11  1  0  0  0  0
 10 11  1  0  0  0  0
 12 14  1  0  0  0  0
 13 14  1  0  0  0  0
 13 15  2  0  0  0  0
  1 16  1  0  0  0  0
  2 17  1  0  0  0  0
  3 18  1  0  0  0  0
  4 19  1  0  0  0  0
  5 20  1  0  0  0  0
  6 21  1  0  0  0  0
  7 22  1  0  0  0  0
  8 23  1  0  0  0  0
  8 24  1  0  0  0  0
  8 25  1  0  0  0  0
  9 26  1  0  0  0  0
  9 27  1  0  0  0  0
 10 28  1  0  0  0  0
 10 29  1  0  0  0  0
 11 30  1  0  0  0  0
 11 31  1  0  0  0  0
 14 32  1  0  0  0  0
M  END
$$$$
