eMolecules_1644_648053
  -OEChem-05261901563D

 36 39  0     0  0  0  0  0  0999 V2000
   -8.2573   -7.7816    2.0237 C   0  0  0  0  0  0  0  0  0  0  0  0
   -8.4109   -6.4755    1.5682 C   0  0  0  0  0  0  0  0  0  0  0  0
   -3.6966    0.7970   -1.8217 C   0  0  0  0  0  0  0  0  0  0  0  0
   -2.5660    0.6118   -1.0023 C   0  0  0  0  0  0  0  0  0  0  0  0
   -3.5190   -7.6048    0.9333 C   0  0  0  0  0  0  0  0  0  0  0  0
   -7.0041   -8.3932    1.9817 C   0  0  0  0  0  0  0  0  0  0  0  0
   -7.3118   -5.7761    1.0689 C   0  0  0  0  0  0  0  0  0  0  0  0
   -4.6180   -8.3042    1.4326 C   0  0  0  0  0  0  0  0  0  0  0  0
   -4.5479   -0.2698   -2.1228 C   0  0  0  0  0  0  0  0  0  0  0  0
   -2.2643   -0.6440   -0.4678 C   0  0  0  0  0  0  0  0  0  0  0  0
   -3.6726   -6.2987    0.4777 C   0  0  0  0  0  0  0  0  0  0  0  0
   -5.8868   -7.7042    1.4824 C   0  0  0  0  0  0  0  0  0  0  0  0
   -6.0430   -6.3761    1.0191 C   0  0  0  0  0  0  0  0  0  0  0  0
   -4.2338   -1.5040   -1.5881 C   0  0  0  0  0  0  0  0  0  0  0  0
   -3.1147   -1.6875   -0.7772 C   0  0  0  0  0  0  0  0  0  0  0  0
   -4.9258   -5.6871    0.5198 C   0  0  0  0  0  0  0  0  0  0  0  0
   -4.9572   -2.7696   -1.7407 C   0  0  0  0  0  0  0  0  0  0  0  0
   -3.0301   -3.0857   -0.3452 C   0  0  0  0  0  0  0  0  0  0  0  0
   -4.1871   -3.8355   -0.9809 C   0  0  0  0  0  0  0  0  0  0  0  0
   -5.0243   -4.3830    0.0536 N   0  0  0  0  0  0  0  0  0  0  0  0
   -5.9785   -2.9126   -2.3855 O   0  0  0  0  0  0  0  0  0  0  0  0
   -2.1624   -3.5385    0.3767 O   0  0  0  0  0  0  0  0  0  0  0  0
   -3.7250   -4.8201   -1.8641 O   0  0  0  0  0  0  0  0  0  0  0  0
   -9.1132   -8.3251    2.4130 H   0  0  0  0  0  0  0  0  0  0  0  0
   -9.3870   -6.0001    1.6014 H   0  0  0  0  0  0  0  0  0  0  0  0
   -3.9098    1.7843   -2.2233 H   0  0  0  0  0  0  0  0  0  0  0  0
   -1.9204    1.4585   -0.7843 H   0  0  0  0  0  0  0  0  0  0  0  0
   -2.5429   -8.0805    0.8993 H   0  0  0  0  0  0  0  0  0  0  0  0
   -6.9075   -9.4151    2.3426 H   0  0  0  0  0  0  0  0  0  0  0  0
   -7.4739   -4.7577    0.7236 H   0  0  0  0  0  0  0  0  0  0  0  0
   -4.4743   -9.3238    1.7839 H   0  0  0  0  0  0  0  0  0  0  0  0
   -5.4194   -0.1223   -2.7503 H   0  0  0  0  0  0  0  0  0  0  0  0
   -1.3939   -0.7828    0.1633 H   0  0  0  0  0  0  0  0  0  0  0  0
   -2.8075   -5.7652    0.0915 H   0  0  0  0  0  0  0  0  0  0  0  0
   -5.7299   -3.7826    0.4711 H   0  0  0  0  0  0  0  0  0  0  0  0
   -3.1396   -4.3879   -2.5159 H   0  0  0  0  0  0  0  0  0  0  0  0
  1  2  1  0  0  0  0
  1  6  2  0  0  0  0
  2  7  2  0  0  0  0
  3  4  1  0  0  0  0
  3  9  2  0  0  0  0
  4 10  2  0  0  0  0
  5  8  1  0  0  0  0
  5 11  2  0  0  0  0
  6 12  1  0  0  0  0
  7 13  1  0  0  0  0
  8 12  2  0  0  0  0
  9 14  1  0  0  0  0
 10 15  1  0  0  0  0
 11 16  1  0  0  0  0
 12 13  1  0  0  0  0
 13 16  2  0  0  0  0
 14 15  2  0  0  0  0
 14 17  1  0  0  0  0
 15 18  1  0  0  0  0
 16 20  1  0  0  0  0
 17 19  1  0  0  0  0
 17 21  2  0  0  0  0
 18 19  1  0  0  0  0
 18 22  2  0  0  0  0
 19 20  1  0  0  0  0
 19 23  1  0  0  0  0
  1 24  1  0  0  0  0
  2 25  1  0  0  0  0
  3 26  1  0  0  0  0
  4 27  1  0  0  0  0
  5 28  1  0  0  0  0
  6 29  1  0  0  0  0
  7 30  1  0  0  0  0
  8 31  1  0  0  0  0
  9 32  1  0  0  0  0
 10 33  1  0  0  0  0
 11 34  1  0  0  0  0
 20 35  1  0  0  0  0
 23 36  1  0  0  0  0
M  END
$$$$
