eMolecules_1007_7551
  -OEChem-05261901543D

 12 12  0     0  0  0  0  0  0999 V2000
   -0.0039    1.1615    0.1031 C   0  0  0  0  0  0  0  0  0  0  0  0
    0.0222   -1.0925   -0.4067 C   0  0  0  0  0  0  0  0  0  0  0  0
    0.0887    1.0968   -1.3950 C   0  0  0  0  0  0  0  0  0  0  0  0
    0.0994   -0.3876   -1.7311 C   0  0  0  0  0  0  0  0  0  0  0  0
   -0.0347   -0.1298    0.5722 N   0  0  0  0  0  0  0  0  0  0  0  0
   -0.0410    2.2033    0.7425 O   0  0  0  0  0  0  0  0  0  0  0  0
    0.0136   -2.3086   -0.2779 O   0  0  0  0  0  0  0  0  0  0  0  0
   -0.1444   -0.5429    2.3928 Br  0  0  0  0  0  0  0  0  0  0  0  0
   -0.7738    1.6003   -1.8414 H   0  0  0  0  0  0  0  0  0  0  0  0
    1.0078    1.5870   -1.7292 H   0  0  0  0  0  0  0  0  0  0  0  0
    1.0204   -0.6722   -2.2484 H   0  0  0  0  0  0  0  0  0  0  0  0
   -0.7621   -0.6628   -2.3467 H   0  0  0  0  0  0  0  0  0  0  0  0
  1  3  1  0  0  0  0
  1  5  1  0  0  0  0
  1  6  2  0  0  0  0
  2  4  1  0  0  0  0
  2  5  1  0  0  0  0
  2  7  2  0  0  0  0
  3  4  1  0  0  0  0
  5  8  1  0  0  0  0
  3  9  1  0  0  0  0
  3 10  1  0  0  0  0
  4 11  1  0  0  0  0
  4 12  1  0  0  0  0
M  END
$$$$
