eMolecules_4698_3718935
  -OEChem-05261901553D

 24 24  0     1  0  0  0  0  0999 V2000
   -0.2284   -1.4741   -1.1272 C   0  0  0  0  0  0  0  0  0  0  0  0
    0.7321   -0.4159   -1.6962 C   0  0  0  0  0  0  0  0  0  0  0  0
   -0.7935   -0.2849    0.9409 C   0  0  0  0  0  0  0  0  0  0  0  0
   -0.8612   -2.6832    0.8615 C   0  0  0  0  0  0  0  0  0  0  0  0
   -0.9161    2.7650    0.5474 C   0  0  0  0  0  0  0  0  0  0  0  0
    1.7566    1.4222    1.1886 C   0  0  0  0  0  0  0  0  0  0  0  0
   -0.1833   -1.4892    0.3501 N   0  0  1  0  0  0  0  0  0  0  0  0
    0.3654    0.9213   -1.3494 O   0  0  0  0  0  0  0  0  0  0  0  0
    0.1284    1.2388    0.2843 Si  0  0  0  0  0  0  0  0  0  0  0  0
   -1.2517   -1.2931   -1.4814 H   0  0  0  0  0  0  0  0  0  0  0  0
    0.0924   -2.4480   -1.5167 H   0  0  0  0  0  0  0  0  0  0  0  0
    1.7673   -0.6088   -1.3838 H   0  0  0  0  0  0  0  0  0  0  0  0
    0.7173   -0.4766   -2.7907 H   0  0  0  0  0  0  0  0  0  0  0  0
   -1.8563   -0.2083    0.6814 H   0  0  0  0  0  0  0  0  0  0  0  0
   -0.7050   -0.3002    2.0329 H   0  0  0  0  0  0  0  0  0  0  0  0
   -0.8282   -2.6950    1.9541 H   0  0  0  0  0  0  0  0  0  0  0  0
   -0.3724   -3.5858    0.4850 H   0  0  0  0  0  0  0  0  0  0  0  0
   -1.9064   -2.6909    0.5409 H   0  0  0  0  0  0  0  0  0  0  0  0
   -0.4080    3.6608    0.1772 H   0  0  0  0  0  0  0  0  0  0  0  0
   -1.8731    2.6848    0.0228 H   0  0  0  0  0  0  0  0  0  0  0  0
   -1.1308    2.9193    1.6093 H   0  0  0  0  0  0  0  0  0  0  0  0
    2.3120    2.2945    0.8305 H   0  0  0  0  0  0  0  0  0  0  0  0
    1.5998    1.5465    2.2645 H   0  0  0  0  0  0  0  0  0  0  0  0
    2.3907    0.5421    1.0444 H   0  0  0  0  0  0  0  0  0  0  0  0
  1  2  1  0  0  0  0
  1  7  1  0  0  0  0
  2  8  1  0  0  0  0
  3  7  1  0  0  0  0
  3  9  1  0  0  0  0
  4  7  1  0  0  0  0
  5  9  1  0  0  0  0
  6  9  1  0  0  0  0
  8  9  1  0  0  0  0
  1 10  1  0  0  0  0
  1 11  1  0  0  0  0
  2 12  1  0  0  0  0
  2 13  1  0  0  0  0
  3 14  1  0  0  0  0
  3 15  1  0  0  0  0
  4 16  1  0  0  0  0
  4 17  1  0  0  0  0
  4 18  1  0  0  0  0
  5 19  1  0  0  0  0
  5 20  1  0  0  0  0
  5 21  1  0  0  0  0
  6 22  1  0  0  0  0
  6 23  1  0  0  0  0
  6 24  1  0  0  0  0
M  END
$$$$
