eMolecules_1641_644942
  -OEChem-05261901553D

  8  7  0     0  0  0  0  0  0999 V2000
   -0.1038   -0.9430    0.3959 N   0  0  0  0  0  0  0  0  0  0  0  0
    1.1950   -1.1355    2.6000 O   0  0  0  0  0  0  0  0  0  0  0  0
    2.4317   -1.3387    0.4160 O   0  0  0  0  0  0  0  0  0  0  0  0
    0.9724   -3.1926    1.2157 O   0  0  0  0  0  0  0  0  0  0  0  0
    1.2510   -1.5859    1.2219 S   0  0  0  0  0  0  0  0  0  0  0  0
   -1.0258   -1.3120    0.6620 H   0  0  0  0  0  0  0  0  0  0  0  0
   -0.1150    0.0740    0.2462 H   0  0  0  0  0  0  0  0  0  0  0  0
    0.8128   -3.5895    0.3273 H   0  0  0  0  0  0  0  0  0  0  0  0
  1  5  1  0  0  0  0
  2  5  2  0  0  0  0
  3  5  2  0  0  0  0
  4  5  1  0  0  0  0
  1  6  1  0  0  0  0
  1  7  1  0  0  0  0
  4  8  1  0  0  0  0
M  END
$$$$
