eMolecules_7412_6451142
  -OEChem-05261901553D

 17 18  0     0  0  0  0  0  0999 V2000
   -0.1570   -1.9697   -0.8476 C   0  0  0  0  0  0  0  0  0  0  0  0
    0.4101   -0.9996   -0.0674 C   0  0  0  0  0  0  0  0  0  0  0  0
    3.6785   -3.9615    1.2514 C   0  0  0  0  0  0  0  0  0  0  0  0
    1.4765   -3.4392   -0.1845 C   0  0  0  0  0  0  0  0  0  0  0  0
    2.0657   -2.4584    0.6163 C   0  0  0  0  0  0  0  0  0  0  0  0
    2.0963   -4.6742   -0.1848 C   0  0  0  0  0  0  0  0  0  0  0  0
    0.3702   -3.2020   -0.9153 N   0  0  0  0  0  0  0  0  0  0  0  0
    1.5164   -1.2388    0.6629 N   0  0  0  0  0  0  0  0  0  0  0  0
    3.1654   -2.7196    1.3333 N   0  0  0  0  0  0  0  0  0  0  0  0
    3.2012   -4.9756    0.5210 N   0  0  0  0  0  0  0  0  0  0  0  0
    1.5315   -5.7014   -0.9848 N   0  0  0  0  0  0  0  0  0  0  0  0
    2.0882   -6.9474   -1.0693 O   0  0  0  0  0  0  0  0  0  0  0  0
   -1.0458   -1.7922   -1.4389 H   0  0  0  0  0  0  0  0  0  0  0  0
   -0.0005   -0.0002    0.0007 H   0  0  0  0  0  0  0  0  0  0  0  0
    4.5680   -4.1572    1.8370 H   0  0  0  0  0  0  0  0  0  0  0  0
    0.7088   -5.5091   -1.5224 H   0  0  0  0  0  0  0  0  0  0  0  0
    1.4742   -7.3910   -1.6788 H   0  0  0  0  0  0  0  0  0  0  0  0
  1  2  1  0  0  0  0
  1  7  2  0  0  0  0
  2  8  2  0  0  0  0
  3  9  1  0  0  0  0
  3 10  2  0  0  0  0
  4  5  1  0  0  0  0
  4  6  2  0  0  0  0
  4  7  1  0  0  0  0
  5  8  1  0  0  0  0
  5  9  2  0  0  0  0
  6 10  1  0  0  0  0
  6 11  1  0  0  0  0
 11 12  1  0  0  0  0
  1 13  1  0  0  0  0
  2 14  1  0  0  0  0
  3 15  1  0  0  0  0
 11 16  1  0  0  0  0
 12 17  1  0  0  0  0
M  END
$$$$
