eMolecules_2371_1376625
  -OEChem-05261901553D

 18 18  0     0  0  0  0  0  0999 V2000
   -1.4557    1.1155   -1.0978 C   0  0  0  0  0  0  0  0  0  0  0  0
   -0.1929    2.0514    0.5995 C   0  0  0  0  0  0  0  0  0  0  0  0
   -2.1214    3.6585    1.1382 C   0  0  0  0  0  0  0  0  0  0  0  0
   -0.1163    0.9864   -0.4526 C   0  0  0  0  0  0  0  0  0  0  0  0
   -1.8694    0.2456   -2.2325 C   0  0  0  0  0  0  0  0  0  0  0  0
   -1.3122    4.2761    2.2483 C   0  0  0  0  0  0  0  0  0  0  0  0
   -2.2034    2.0378   -0.5814 N   0  0  0  0  0  0  0  0  0  0  0  0
   -1.4832    2.6243    0.4408 N   0  0  0  0  0  0  0  0  0  0  0  0
    0.6925    2.3233    1.3925 O   0  0  0  0  0  0  0  0  0  0  0  0
   -3.2594    4.0608    0.8917 O   0  0  0  0  0  0  0  0  0  0  0  0
   -0.0000    0.0003    0.0006 H   0  0  0  0  0  0  0  0  0  0  0  0
    0.6785    1.2023   -1.1688 H   0  0  0  0  0  0  0  0  0  0  0  0
   -2.3583   -0.6545   -1.8553 H   0  0  0  0  0  0  0  0  0  0  0  0
   -0.9962   -0.0439   -2.8207 H   0  0  0  0  0  0  0  0  0  0  0  0
   -2.5639    0.7821   -2.8819 H   0  0  0  0  0  0  0  0  0  0  0  0
   -0.7355    5.1053    1.8505 H   0  0  0  0  0  0  0  0  0  0  0  0
   -0.6444    3.5269    2.6630 H   0  0  0  0  0  0  0  0  0  0  0  0
   -1.9836    4.6313    3.0242 H   0  0  0  0  0  0  0  0  0  0  0  0
  1  4  1  0  0  0  0
  1  5  1  0  0  0  0
  1  7  2  0  0  0  0
  2  4  1  0  0  0  0
  2  8  1  0  0  0  0
  2  9  2  0  0  0  0
  3  6  1  0  0  0  0
  3  8  1  0  0  0  0
  3 10  2  0  0  0  0
  7  8  1  0  0  0  0
  4 11  1  0  0  0  0
  4 12  1  0  0  0  0
  5 13  1  0  0  0  0
  5 14  1  0  0  0  0
  5 15  1  0  0  0  0
  6 16  1  0  0  0  0
  6 17  1  0  0  0  0
  6 18  1  0  0  0  0
M  END
$$$$
