eMolecules_2474_1479995
  -OEChem-05261901553D

 28 31  0     0  0  0  0  0  0999 V2000
    1.0543   -1.6007    0.2065 B   0  0  0  0  0  0  0  0  0  0  0  0
   -1.9997    0.1527   -1.3166 C   0  0  0  0  0  0  0  0  0  0  0  0
   -0.5595    2.4275    0.4084 C   0  0  0  0  0  0  0  0  0  0  0  0
   -2.3210   -1.0423   -1.9313 C   0  0  0  0  0  0  0  0  0  0  0  0
    0.3167    3.1108    1.2264 C   0  0  0  0  0  0  0  0  0  0  0  0
    1.7381   -3.0239    0.2172 C   0  0  0  0  0  0  0  0  0  0  0  0
   -0.2834   -1.2558   -0.5954 C   0  0  0  0  0  0  0  0  0  0  0  0
   -0.8158    0.0286   -0.5440 C   0  0  0  0  0  0  0  0  0  0  0  0
   -0.1550    1.0809    0.2471 C   0  0  0  0  0  0  0  0  0  0  0  0
    1.0368   -4.1313    0.6940 C   0  0  0  0  0  0  0  0  0  0  0  0
    3.0436   -3.1737   -0.2508 C   0  0  0  0  0  0  0  0  0  0  0  0
    1.6409   -5.3885    0.7030 C   0  0  0  0  0  0  0  0  0  0  0  0
    3.6477   -4.4309   -0.2419 C   0  0  0  0  0  0  0  0  0  0  0  0
    2.9464   -5.5383    0.2350 C   0  0  0  0  0  0  0  0  0  0  0  0
    1.0098    0.7658    0.9354 C   0  0  0  0  0  0  0  0  0  0  0  0
    1.6026   -0.4761    0.9366 N   0  0  0  0  0  0  0  0  0  0  0  0
   -0.2210   -4.0191    1.1493 F   0  0  0  0  0  0  0  0  0  0  0  0
    3.7438   -2.1268   -0.7153 F   0  0  0  0  0  0  0  0  0  0  0  0
    0.9674   -6.4523    1.1599 F   0  0  0  0  0  0  0  0  0  0  0  0
    4.9017   -4.5752   -0.6899 F   0  0  0  0  0  0  0  0  0  0  0  0
    3.5260   -6.7457    0.2451 F   0  0  0  0  0  0  0  0  0  0  0  0
   -1.1945   -2.2907   -1.5713 S   0  0  0  0  0  0  0  0  0  0  0  0
    1.6075    2.1231    1.7809 S   0  0  0  0  0  0  0  0  0  0  0  0
   -2.5923    1.0514   -1.4302 H   0  0  0  0  0  0  0  0  0  0  0  0
   -1.4329    2.8872   -0.0359 H   0  0  0  0  0  0  0  0  0  0  0  0
   -3.1631   -1.2444   -2.5780 H   0  0  0  0  0  0  0  0  0  0  0  0
    0.2630    4.1477    1.5268 H   0  0  0  0  0  0  0  0  0  0  0  0
    2.4553   -0.5808    1.4822 H   0  0  0  0  0  0  0  0  0  0  0  0
  1  6  1  0  0  0  0
  1  7  1  0  0  0  0
  1 16  1  0  0  0  0
  2  4  2  0  0  0  0
  2  8  1  0  0  0  0
  3  5  2  0  0  0  0
  3  9  1  0  0  0  0
  4 22  1  0  0  0  0
  5 23  1  0  0  0  0
  6 10  1  0  0  0  0
  6 11  2  0  0  0  0
  7  8  2  0  0  0  0
  7 22  1  0  0  0  0
  8  9  1  0  0  0  0
  9 15  2  0  0  0  0
 10 12  2  0  0  0  0
 10 17  1  0  0  0  0
 11 13  1  0  0  0  0
 11 18  1  0  0  0  0
 12 14  1  0  0  0  0
 12 19  1  0  0  0  0
 13 14  2  0  0  0  0
 13 20  1  0  0  0  0
 14 21  1  0  0  0  0
 15 16  1  0  0  0  0
 15 23  1  0  0  0  0
  2 24  1  0  0  0  0
  3 25  1  0  0  0  0
  4 26  1  0  0  0  0
  5 27  1  0  0  0  0
 16 28  1  0  0  0  0
M  END
$$$$
