eMolecules_2283_1287861
  -OEChem-05261901553D

 36 37  0     0  0  0  0  0  0999 V2000
    3.7059    6.0177   -4.9293 C   0  0  0  0  0  0  0  0  0  0  0  0
    2.3858    6.4413   -4.8714 C   0  0  0  0  0  0  0  0  0  0  0  0
    4.0944    4.8317   -4.3007 C   0  0  0  0  0  0  0  0  0  0  0  0
    1.4274    5.6919   -4.1865 C   0  0  0  0  0  0  0  0  0  0  0  0
    3.1464    4.0492   -3.5980 C   0  0  0  0  0  0  0  0  0  0  0  0
    3.3012    2.8139   -2.8836 C   0  0  0  0  0  0  0  0  0  0  0  0
    1.8224    4.4967   -3.5539 C   0  0  0  0  0  0  0  0  0  0  0  0
    2.1259    2.3653   -2.3297 C   0  0  0  0  0  0  0  0  0  0  0  0
    1.8754    1.1513   -1.5287 C   0  0  0  0  0  0  0  0  0  0  0  0
   -0.8285   -0.4963    0.1221 C   0  0  0  0  0  0  0  0  0  0  0  0
    4.5962    2.0954   -2.7561 C   0  0  0  0  0  0  0  0  0  0  0  0
   -3.9101    1.4104   -0.4817 C   0  0  0  0  0  0  0  0  0  0  0  0
   -3.0787    0.2788    0.0840 C   0  0  0  0  0  0  0  0  0  0  0  0
    2.2978   -0.6383    1.7068 C   0  0  0  0  0  0  0  0  0  0  0  0
    0.6931    0.8686   -1.0916 N   0  0  0  0  0  0  0  0  0  0  0  0
    0.4764   -0.2456   -0.3206 N   0  0  0  0  0  0  0  0  0  0  0  0
   -1.1662   -1.4534    0.8169 O   0  0  0  0  0  0  0  0  0  0  0  0
   -1.7150    0.4569   -0.3157 O   0  0  0  0  0  0  0  0  0  0  0  0
    0.8233    3.4147   -2.6570 S   0  0  0  0  0  0  0  0  0  0  0  0
    1.7029   -1.3452    0.1316 S   0  0  0  0  0  0  0  0  0  0  0  0
    2.3913    1.1448    1.6507 Cl  0  0  0  0  0  0  0  0  0  0  0  0
    3.9599   -1.2612    2.0059 Cl  0  0  0  0  0  0  0  0  0  0  0  0
    1.2787   -1.1315    3.0889 Cl  0  0  0  0  0  0  0  0  0  0  0  0
    4.4426    6.6094   -5.4654 H   0  0  0  0  0  0  0  0  0  0  0  0
    2.0938    7.3660   -5.3622 H   0  0  0  0  0  0  0  0  0  0  0  0
    5.1335    4.5167   -4.3568 H   0  0  0  0  0  0  0  0  0  0  0  0
    0.3963    6.0313   -4.1462 H   0  0  0  0  0  0  0  0  0  0  0  0
    2.7574    0.5139   -1.3496 H   0  0  0  0  0  0  0  0  0  0  0  0
    5.1390    2.4319   -1.8622 H   0  0  0  0  0  0  0  0  0  0  0  0
    4.4486    1.0084   -2.6798 H   0  0  0  0  0  0  0  0  0  0  0  0
    5.2389    2.2636   -3.6324 H   0  0  0  0  0  0  0  0  0  0  0  0
   -3.5602    2.3766   -0.1075 H   0  0  0  0  0  0  0  0  0  0  0  0
   -3.8611    1.4161   -1.5755 H   0  0  0  0  0  0  0  0  0  0  0  0
   -4.9641    1.2875   -0.2110 H   0  0  0  0  0  0  0  0  0  0  0  0
   -3.4339   -0.6845   -0.2941 H   0  0  0  0  0  0  0  0  0  0  0  0
   -3.1281    0.2751    1.1769 H   0  0  0  0  0  0  0  0  0  0  0  0
  1  2  1  0  0  0  0
  1  3  2  0  0  0  0
  2  4  2  0  0  0  0
  3  5  1  0  0  0  0
  4  7  1  0  0  0  0
  5  6  1  0  0  0  0
  5  7  2  0  0  0  0
  6  8  2  0  0  0  0
  6 11  1  0  0  0  0
  7 19  1  0  0  0  0
  8  9  1  0  0  0  0
  8 19  1  0  0  0  0
  9 15  2  0  0  0  0
 10 16  1  0  0  0  0
 10 17  2  0  0  0  0
 10 18  1  0  0  0  0
 12 13  1  0  0  0  0
 13 18  1  0  0  0  0
 14 20  1  0  0  0  0
 14 21  1  0  0  0  0
 14 22  1  0  0  0  0
 14 23  1  0  0  0  0
 15 16  1  0  0  0  0
 16 20  1  0  0  0  0
  1 24  1  0  0  0  0
  2 25  1  0  0  0  0
  3 26  1  0  0  0  0
  4 27  1  0  0  0  0
  9 28  1  0  0  0  0
 11 29  1  0  0  0  0
 11 30  1  0  0  0  0
 11 31  1  0  0  0  0
 12 32  1  0  0  0  0
 12 33  1  0  0  0  0
 12 34  1  0  0  0  0
 13 35  1  0  0  0  0
 13 36  1  0  0  0  0
M  END
$$$$
