eMolecules_2357_1362644
  -OEChem-05261901553D

 23 24  0     0  0  0  0  0  0999 V2000
   -2.3052    1.1974    1.3327 C   0  0  0  0  0  0  0  0  0  0  0  0
   -1.2976   -0.3027    2.9363 C   0  0  0  0  0  0  0  0  0  0  0  0
   -3.3647    1.4247    2.2110 C   0  0  0  0  0  0  0  0  0  0  0  0
   -2.3571   -0.0754    3.8147 C   0  0  0  0  0  0  0  0  0  0  0  0
   -1.2717    0.3337    1.6953 C   0  0  0  0  0  0  0  0  0  0  0  0
   -3.3906    0.7883    3.4520 C   0  0  0  0  0  0  0  0  0  0  0  0
    0.6229    1.2145    0.3805 C   0  0  0  0  0  0  0  0  0  0  0  0
    1.3101    0.8674   -0.9232 C   0  0  0  0  0  0  0  0  0  0  0  0
    0.3881   -0.1060   -1.6575 C   0  0  0  0  0  0  0  0  0  0  0  0
   -0.1811    0.0997    0.7912 N   0  0  0  0  0  0  0  0  0  0  0  0
    0.7917    2.2561    0.9990 O   0  0  0  0  0  0  0  0  0  0  0  0
   -1.7753   -1.3022   -0.7578 O   0  0  0  0  0  0  0  0  0  0  0  0
    0.4955   -2.2386   -0.1150 O   0  0  0  0  0  0  0  0  0  0  0  0
   -4.4081    1.0066    4.2954 F   0  0  0  0  0  0  0  0  0  0  0  0
   -0.3802   -1.1244   -0.4125 S   0  0  0  0  0  0  0  0  0  0  0  0
   -2.2945    1.6984    0.3682 H   0  0  0  0  0  0  0  0  0  0  0  0
   -0.4973   -0.9776    3.2286 H   0  0  0  0  0  0  0  0  0  0  0  0
   -4.1695    2.0971    1.9291 H   0  0  0  0  0  0  0  0  0  0  0  0
   -2.3778   -0.5707    4.7809 H   0  0  0  0  0  0  0  0  0  0  0  0
    1.4943    1.7664   -1.5168 H   0  0  0  0  0  0  0  0  0  0  0  0
    2.2661    0.3904   -0.6824 H   0  0  0  0  0  0  0  0  0  0  0  0
   -0.4100    0.4378   -2.1730 H   0  0  0  0  0  0  0  0  0  0  0  0
    0.9263   -0.7356   -2.3691 H   0  0  0  0  0  0  0  0  0  0  0  0
  1  3  1  0  0  0  0
  1  5  2  0  0  0  0
  2  4  2  0  0  0  0
  2  5  1  0  0  0  0
  3  6  2  0  0  0  0
  4  6  1  0  0  0  0
  5 10  1  0  0  0  0
  6 14  1  0  0  0  0
  7  8  1  0  0  0  0
  7 10  1  0  0  0  0
  7 11  2  0  0  0  0
  8  9  1  0  0  0  0
  9 15  1  0  0  0  0
 10 15  1  0  0  0  0
 12 15  2  0  0  0  0
 13 15  2  0  0  0  0
  1 16  1  0  0  0  0
  2 17  1  0  0  0  0
  3 18  1  0  0  0  0
  4 19  1  0  0  0  0
  8 20  1  0  0  0  0
  8 21  1  0  0  0  0
  9 22  1  0  0  0  0
  9 23  1  0  0  0  0
M  END
$$$$
