eMolecules_4405_3423370
  -OEChem-05261901553D

 10  9  0     0  0  0  0  0  0999 V2000
    2.0609   -1.2331    2.3784 C   0  0  0  0  0  0  0  0  0  0  0  0
    0.2839   -0.0307    1.0547 C   0  0  0  0  0  0  0  0  0  0  0  0
    1.4099   -0.9321    1.2018 N   0  0  0  0  0  0  0  0  0  0  0  0
    1.7216   -0.6446    3.9056 S   0  0  0  0  0  0  0  0  0  0  0  0
    3.3666   -2.3735    2.0836 S   0  0  0  0  0  0  0  0  0  0  0  0
   -0.6543   -0.5791    1.1732 H   0  0  0  0  0  0  0  0  0  0  0  0
    0.2978    0.4330    0.0646 H   0  0  0  0  0  0  0  0  0  0  0  0
    0.3290    0.7572    1.8113 H   0  0  0  0  0  0  0  0  0  0  0  0
    1.7513   -1.3832    0.3586 H   0  0  0  0  0  0  0  0  0  0  0  0
    3.7889   -2.4665    3.3530 H   0  0  0  0  0  0  0  0  0  0  0  0
  1  3  1  0  0  0  0
  1  4  2  0  0  0  0
  1  5  1  0  0  0  0
  2  3  1  0  0  0  0
  2  6  1  0  0  0  0
  2  7  1  0  0  0  0
  2  8  1  0  0  0  0
  3  9  1  0  0  0  0
  5 10  1  0  0  0  0
M  END
$$$$
