eMolecules_8905_7953229
  -OEChem-05261901553D

 14 15  0     0  0  0  0  0  0999 V2000
   -1.5583    2.6371   -2.3844 C   0  0  0  0  0  0  0  0  0  0  0  0
   -0.4843    1.9890   -1.7845 C   0  0  0  0  0  0  0  0  0  0  0  0
   -2.8369    2.2502   -2.0166 C   0  0  0  0  0  0  0  0  0  0  0  0
   -2.0346    0.6750   -0.5492 C   0  0  0  0  0  0  0  0  0  0  0  0
   -0.7185    0.9880   -0.8484 C   0  0  0  0  0  0  0  0  0  0  0  0
    0.2938   -0.1912    0.9982 C   0  0  0  0  0  0  0  0  0  0  0  0
   -3.1037    1.2824   -1.1112 N   0  0  0  0  0  0  0  0  0  0  0  0
    0.0651   -1.0483    0.1412 N   0  0  0  0  0  0  0  0  0  0  0  0
    0.3553    0.3101   -0.2204 N   0  0  0  0  0  0  0  0  0  0  0  0
   -1.3997    3.4204   -3.1167 H   0  0  0  0  0  0  0  0  0  0  0  0
    0.5301    2.2714   -2.0533 H   0  0  0  0  0  0  0  0  0  0  0  0
   -3.7085    2.7247   -2.4553 H   0  0  0  0  0  0  0  0  0  0  0  0
   -2.2805   -0.0974    0.1734 H   0  0  0  0  0  0  0  0  0  0  0  0
    0.4408    0.2825    1.9683 H   0  0  0  0  0  0  0  0  0  0  0  0
  1  2  1  0  0  0  0
  1  3  2  0  0  0  0
  2  5  2  0  0  0  0
  3  7  1  0  0  0  0
  4  5  1  0  0  0  0
  4  7  2  0  0  0  0
  5  9  1  0  0  0  0
  6  8  2  0  0  0  0
  6  9  1  0  0  0  0
  8  9  1  0  0  0  0
  1 10  1  0  0  0  0
  2 11  1  0  0  0  0
  3 12  1  0  0  0  0
  4 13  1  0  0  0  0
  6 14  1  0  0  0  0
M  END
$$$$
