eMolecules_1012_12986
  -OEChem-05261901553D

 30 31  0     0  0  0  0  0  0999 V2000
    2.4711    0.1137    0.1113 C   0  0  0  0  0  0  0  0  0  0  0  0
    6.2863   -2.1284    0.6637 C   0  0  0  0  0  0  0  0  0  0  0  0
    2.4312    1.0841    1.1125 C   0  0  0  0  0  0  0  0  0  0  0  0
    2.2873   -1.2306    0.4351 C   0  0  0  0  0  0  0  0  0  0  0  0
    5.9824   -0.8175    1.0307 C   0  0  0  0  0  0  0  0  0  0  0  0
    6.1228   -3.1655    1.5821 C   0  0  0  0  0  0  0  0  0  0  0  0
    2.2077    0.7102    2.4376 C   0  0  0  0  0  0  0  0  0  0  0  0
    2.0638   -1.6044    1.7602 C   0  0  0  0  0  0  0  0  0  0  0  0
    5.5150   -0.5436    2.3160 C   0  0  0  0  0  0  0  0  0  0  0  0
    5.6554   -2.8916    2.8675 C   0  0  0  0  0  0  0  0  0  0  0  0
    2.0239   -0.6341    2.7615 C   0  0  0  0  0  0  0  0  0  0  0  0
    5.3515   -1.5806    3.2345 C   0  0  0  0  0  0  0  0  0  0  0  0
    3.1948   -1.9148    4.8502 N   0  0  0  0  0  0  0  0  0  0  0  0
    1.6266    0.1015    5.2326 O   0  0  0  0  0  0  0  0  0  0  0  0
    0.6568   -2.0680    4.4179 O   0  0  0  0  0  0  0  0  0  0  0  0
    5.6023   -1.9915    5.7717 O   0  0  0  0  0  0  0  0  0  0  0  0
    4.6595    0.2069    5.0042 O   0  0  0  0  0  0  0  0  0  0  0  0
    3.1711   -3.2655    4.6012 F   0  0  0  0  0  0  0  0  0  0  0  0
    1.7474   -1.1019    4.4208 S   0  0  0  0  0  0  0  0  0  0  0  0
    4.7627   -1.2327    4.8635 S   0  0  0  0  0  0  0  0  0  0  0  0
    2.6458    0.4041   -0.9207 H   0  0  0  0  0  0  0  0  0  0  0  0
    6.6509   -2.3423   -0.3368 H   0  0  0  0  0  0  0  0  0  0  0  0
    2.5753    2.1307    0.8609 H   0  0  0  0  0  0  0  0  0  0  0  0
    2.3191   -1.9858   -0.3445 H   0  0  0  0  0  0  0  0  0  0  0  0
    6.1106   -0.0096    0.3163 H   0  0  0  0  0  0  0  0  0  0  0  0
    6.3602   -4.1859    1.2963 H   0  0  0  0  0  0  0  0  0  0  0  0
    2.1794    1.4742    3.2099 H   0  0  0  0  0  0  0  0  0  0  0  0
    1.9232   -2.6546    2.0014 H   0  0  0  0  0  0  0  0  0  0  0  0
    5.2821    0.4815    2.5919 H   0  0  0  0  0  0  0  0  0  0  0  0
    5.5331   -3.7069    3.5753 H   0  0  0  0  0  0  0  0  0  0  0  0
  1  3  1  0  0  0  0
  1  4  2  0  0  0  0
  2  5  1  0  0  0  0
  2  6  2  0  0  0  0
  3  7  2  0  0  0  0
  4  8  1  0  0  0  0
  5  9  2  0  0  0  0
  6 10  1  0  0  0  0
  7 11  1  0  0  0  0
  8 11  2  0  0  0  0
  9 12  1  0  0  0  0
 10 12  2  0  0  0  0
 11 19  1  0  0  0  0
 12 20  1  0  0  0  0
 13 18  1  0  0  0  0
 13 19  1  0  0  0  0
 13 20  1  0  0  0  0
 14 19  2  0  0  0  0
 15 19  2  0  0  0  0
 16 20  2  0  0  0  0
 17 20  2  0  0  0  0
  1 21  1  0  0  0  0
  2 22  1  0  0  0  0
  3 23  1  0  0  0  0
  4 24  1  0  0  0  0
  5 25  1  0  0  0  0
  6 26  1  0  0  0  0
  7 27  1  0  0  0  0
  8 28  1  0  0  0  0
  9 29  1  0  0  0  0
 10 30  1  0  0  0  0
M  END
$$$$
