eMolecules_2411_1417118
  -OEChem-05261901553D

 17 17  0     0  0  0  0  0  0999 V2000
    0.5081   -1.1331    4.6876 C   0  0  0  0  0  0  0  0  0  0  0  0
    1.8851   -1.0363   -0.1124 C   0  0  0  0  0  0  0  0  0  0  0  0
    0.8066   -0.4630    0.5610 C   0  0  0  0  0  0  0  0  0  0  0  0
    2.9210   -1.6309    0.6081 C   0  0  0  0  0  0  0  0  0  0  0  0
    0.7638   -0.4841    1.9551 C   0  0  0  0  0  0  0  0  0  0  0  0
    2.8783   -1.6520    2.0022 C   0  0  0  0  0  0  0  0  0  0  0  0
    1.7997   -1.0786    2.6757 C   0  0  0  0  0  0  0  0  0  0  0  0
    2.9188   -1.0892    4.9018 C   0  0  0  0  0  0  0  0  0  0  0  0
   -0.5399   -1.1646    5.1862 N   0  0  0  0  0  0  0  0  0  0  0  0
    1.7567   -1.0998    4.0701 N   0  0  0  0  0  0  0  0  0  0  0  0
    2.9692   -1.1061    6.1302 O   0  0  0  0  0  0  0  0  0  0  0  0
    1.9184   -1.0208   -1.1980 H   0  0  0  0  0  0  0  0  0  0  0  0
   -0.0005   -0.0008    0.0003 H   0  0  0  0  0  0  0  0  0  0  0  0
    3.7603   -2.0781    0.0834 H   0  0  0  0  0  0  0  0  0  0  0  0
   -0.0819   -0.0343    2.4691 H   0  0  0  0  0  0  0  0  0  0  0  0
    3.6913   -2.1182    2.5533 H   0  0  0  0  0  0  0  0  0  0  0  0
    3.8501   -1.0316    4.3282 H   0  0  0  0  0  0  0  0  0  0  0  0
  1  9  3  0  0  0  0
  1 10  1  0  0  0  0
  2  3  1  0  0  0  0
  2  4  2  0  0  0  0
  3  5  2  0  0  0  0
  4  6  1  0  0  0  0
  5  7  1  0  0  0  0
  6  7  2  0  0  0  0
  7 10  1  0  0  0  0
  8 10  1  0  0  0  0
  8 11  2  0  0  0  0
  2 12  1  0  0  0  0
  3 13  1  0  0  0  0
  4 14  1  0  0  0  0
  5 15  1  0  0  0  0
  6 16  1  0  0  0  0
  8 17  1  0  0  0  0
M  END
$$$$
