eMolecules_1014_15099
  -OEChem-05261901553D

 24 25  0     1  0  0  0  0  0999 V2000
    1.4653    0.9498   -1.2690 C   0  0  0  0  0  0  0  0  0  0  0  0
    0.1781    0.4842   -0.9562 C   0  0  0  0  0  0  0  0  0  0  0  0
    1.7243    1.5755   -2.4944 C   0  0  0  0  0  0  0  0  0  0  0  0
   -0.8701    0.6410   -1.8603 C   0  0  0  0  0  0  0  0  0  0  0  0
    0.6879    1.7314   -3.4063 C   0  0  0  0  0  0  0  0  0  0  0  0
   -0.5835    1.2675   -3.0575 C   0  0  0  0  0  0  0  0  0  0  0  0
    0.7644    2.3712   -4.7795 C   0  0  0  0  0  0  0  0  0  0  0  0
    1.8853    1.7735   -5.6331 C   0  0  0  0  0  0  0  0  0  0  0  0
    0.9165    3.8905   -4.6584 C   0  0  0  0  0  0  0  0  0  0  0  0
   -0.5452    2.0433   -5.4620 N   0  0  2  0  0  0  0  0  0  0  0  0
   -2.3293    0.3046   -4.7260 O   0  0  0  0  0  0  0  0  0  0  0  0
   -2.5355    2.7096   -3.9173 O   0  0  0  0  0  0  0  0  0  0  0  0
   -0.9768    2.9463   -6.4010 F   0  0  0  0  0  0  0  0  0  0  0  0
   -1.7462    1.5654   -4.3216 S   0  0  0  0  0  0  0  0  0  0  0  0
    2.2706    0.8216   -0.5504 H   0  0  0  0  0  0  0  0  0  0  0  0
    0.0000    0.0005    0.0003 H   0  0  0  0  0  0  0  0  0  0  0  0
    2.7257    1.9298   -2.7172 H   0  0  0  0  0  0  0  0  0  0  0  0
   -1.8667    0.2867   -1.6237 H   0  0  0  0  0  0  0  0  0  0  0  0
    1.9036    2.2599   -6.6057 H   0  0  0  0  0  0  0  0  0  0  0  0
    1.7141    0.7078   -5.7676 H   0  0  0  0  0  0  0  0  0  0  0  0
    2.8421    1.9241   -5.1380 H   0  0  0  0  0  0  0  0  0  0  0  0
    0.9697    4.3319   -5.6507 H   0  0  0  0  0  0  0  0  0  0  0  0
    1.8269    4.1234   -4.1115 H   0  0  0  0  0  0  0  0  0  0  0  0
    0.0617    4.3014   -4.1267 H   0  0  0  0  0  0  0  0  0  0  0  0
  1  2  1  0  0  0  0
  1  3  2  0  0  0  0
  2  4  2  0  0  0  0
  3  5  1  0  0  0  0
  4  6  1  0  0  0  0
  5  6  2  0  0  0  0
  5  7  1  0  0  0  0
  6 14  1  0  0  0  0
  7  8  1  0  0  0  0
  7  9  1  0  0  0  0
  7 10  1  0  0  0  0
 10 13  1  0  0  0  0
 10 14  1  0  0  0  0
 11 14  2  0  0  0  0
 12 14  2  0  0  0  0
  1 15  1  0  0  0  0
  2 16  1  0  0  0  0
  3 17  1  0  0  0  0
  4 18  1  0  0  0  0
  8 19  1  0  0  0  0
  8 20  1  0  0  0  0
  8 21  1  0  0  0  0
  9 22  1  0  0  0  0
  9 23  1  0  0  0  0
  9 24  1  0  0  0  0
M  END
$$$$
