eMolecules_8911_7960004
  -OEChem-05261901553D

 19 19  0     0  0  0  0  0  0999 V2000
   -2.7414    0.9405    2.2464 C   0  0  0  0  0  0  0  0  0  0  0  0
   -1.4829    0.7175    1.6167 C   0  0  0  0  0  0  0  0  0  0  0  0
   -2.6492    1.8451    3.2812 C   0  0  0  0  0  0  0  0  0  0  0  0
   -0.4766    1.4604    2.1942 C   0  0  0  0  0  0  0  0  0  0  0  0
    1.6612    0.4761    1.3400 C   0  0  0  0  0  0  0  0  0  0  0  0
    1.2074   -0.9339    1.6988 C   0  0  0  0  0  0  0  0  0  0  0  0
    1.5914    2.8206    2.2205 C   0  0  0  0  0  0  0  0  0  0  0  0
    0.9333    1.5467    1.8836 N   0  0  0  0  0  0  0  0  0  0  0  0
    2.9586    0.6099    0.2645 S   0  0  0  0  0  0  0  0  0  0  0  0
   -1.0503    2.4215    3.4902 S   0  0  0  0  0  0  0  0  0  0  0  0
   -3.6673    0.4618    1.9552 H   0  0  0  0  0  0  0  0  0  0  0  0
   -1.3291    0.0449    0.7824 H   0  0  0  0  0  0  0  0  0  0  0  0
   -3.4443    2.1950    3.9245 H   0  0  0  0  0  0  0  0  0  0  0  0
    0.4730   -1.2905    0.9700 H   0  0  0  0  0  0  0  0  0  0  0  0
    2.0423   -1.6370    1.7536 H   0  0  0  0  0  0  0  0  0  0  0  0
    0.7272   -0.9351    2.6843 H   0  0  0  0  0  0  0  0  0  0  0  0
    1.9870    2.7813    3.2388 H   0  0  0  0  0  0  0  0  0  0  0  0
    0.8764    3.6450    2.1523 H   0  0  0  0  0  0  0  0  0  0  0  0
    2.4164    3.0141    1.5297 H   0  0  0  0  0  0  0  0  0  0  0  0
  1  2  1  0  0  0  0
  1  3  2  0  0  0  0
  2  4  2  0  0  0  0
  3 10  1  0  0  0  0
  4  8  1  0  0  0  0
  4 10  1  0  0  0  0
  5  6  1  0  0  0  0
  5  8  1  0  0  0  0
  5  9  2  0  0  0  0
  7  8  1  0  0  0  0
  1 11  1  0  0  0  0
  2 12  1  0  0  0  0
  3 13  1  0  0  0  0
  6 14  1  0  0  0  0
  6 15  1  0  0  0  0
  6 16  1  0  0  0  0
  7 17  1  0  0  0  0
  7 18  1  0  0  0  0
  7 19  1  0  0  0  0
M  END
$$$$
