eMolecules_8928_7976623
  -OEChem-05261901553D

 21 20  0     1  0  0  0  0  0999 V2000
    1.1098    1.6739    0.3771 C   0  0  0  0  0  0  0  0  0  0  0  0
    0.2117    0.7988    1.1966 C   0  0  0  0  0  0  0  0  0  0  0  0
    0.7880   -1.3415    0.2785 C   0  0  0  0  0  0  0  0  0  0  0  0
    0.5588   -2.1966   -0.9543 C   0  0  0  0  0  0  0  0  0  0  0  0
   -1.4935   -0.8857    0.8858 C   0  0  0  0  0  0  0  0  0  0  0  0
   -0.2490   -0.3118    0.3615 N   0  0  1  0  0  0  0  0  0  0  0  0
    1.4038    1.5147   -0.7982 O   0  0  0  0  0  0  0  0  0  0  0  0
    1.5706    2.7029    1.1345 O   0  0  0  0  0  0  0  0  0  0  0  0
    1.5884   -3.1726   -1.0502 O   0  0  0  0  0  0  0  0  0  0  0  0
   -2.5437    0.0750    0.9791 O   0  0  0  0  0  0  0  0  0  0  0  0
    0.7674    0.3964    2.0477 H   0  0  0  0  0  0  0  0  0  0  0  0
   -0.6540    1.3716    1.5392 H   0  0  0  0  0  0  0  0  0  0  0  0
    0.7477   -1.9433    1.1920 H   0  0  0  0  0  0  0  0  0  0  0  0
    1.7602   -0.8427    0.2207 H   0  0  0  0  0  0  0  0  0  0  0  0
    0.5978   -1.5749   -1.8542 H   0  0  0  0  0  0  0  0  0  0  0  0
   -0.4086   -2.7079   -0.9154 H   0  0  0  0  0  0  0  0  0  0  0  0
   -1.8446   -1.7187    0.2648 H   0  0  0  0  0  0  0  0  0  0  0  0
   -1.3276   -1.2633    1.9010 H   0  0  0  0  0  0  0  0  0  0  0  0
    1.2264    2.6640    2.0524 H   0  0  0  0  0  0  0  0  0  0  0  0
    1.4049   -3.6950   -1.8474 H   0  0  0  0  0  0  0  0  0  0  0  0
   -2.7010    0.4130    0.0810 H   0  0  0  0  0  0  0  0  0  0  0  0
  1  2  1  0  0  0  0
  1  7  2  0  0  0  0
  1  8  1  0  0  0  0
  2  6  1  0  0  0  0
  3  4  1  0  0  0  0
  3  6  1  0  0  0  0
  4  9  1  0  0  0  0
  5  6  1  0  0  0  0
  5 10  1  0  0  0  0
  2 11  1  0  0  0  0
  2 12  1  0  0  0  0
  3 13  1  0  0  0  0
  3 14  1  0  0  0  0
  4 15  1  0  0  0  0
  4 16  1  0  0  0  0
  5 17  1  0  0  0  0
  5 18  1  0  0  0  0
  8 19  1  0  0  0  0
  9 20  1  0  0  0  0
 10 21  1  0  0  0  0
M  END
$$$$
