eMolecules_1643_646613
  -OEChem-05261901553D

 46 45  0     0  0  0  0  0  0999 V2000
    0.1045   -3.2632   -1.1941 C   0  0  0  0  0  0  0  0  0  0  0  0
    2.2130   -1.9044   -1.1635 C   0  0  0  0  0  0  0  0  0  0  0  0
   -1.3256   -1.2847   -3.9050 C   0  0  0  0  0  0  0  0  0  0  0  0
   -2.6971    0.1048   -2.3299 C   0  0  0  0  0  0  0  0  0  0  0  0
   -1.9696    2.3253   -0.5403 C   0  0  0  0  0  0  0  0  0  0  0  0
   -2.1272    2.6322    1.9444 C   0  0  0  0  0  0  0  0  0  0  0  0
    0.5591   -0.7808    3.1335 C   0  0  0  0  0  0  0  0  0  0  0  0
   -1.9175   -0.7732    2.7344 C   0  0  0  0  0  0  0  0  0  0  0  0
    0.8270   -2.0557   -1.7755 C   0  0  0  0  0  0  0  0  0  0  0  0
   -1.6452   -0.9900   -2.4458 C   0  0  0  0  0  0  0  0  0  0  0  0
   -1.9229    1.6321    0.8145 C   0  0  0  0  0  0  0  0  0  0  0  0
   -0.6371    0.0496    2.6888 C   0  0  0  0  0  0  0  0  0  0  0  0
   -0.5086   -0.6125    0.0728 N   0  0  0  0  0  0  0  0  0  0  0  0
   -0.1519   -0.5425   -1.5405 P   0  0  0  0  0  0  0  0  0  0  0  0
   -0.3666    0.7341    1.0240 P   0  0  0  0  0  0  0  0  0  0  0  0
    0.7694    1.0208   -2.2660 S   0  0  0  0  0  0  0  0  0  0  0  0
    1.2111    1.8857    0.9823 S   0  0  0  0  0  0  0  0  0  0  0  0
   -0.0229   -3.1660   -0.1114 H   0  0  0  0  0  0  0  0  0  0  0  0
   -0.8827   -3.3851   -1.6517 H   0  0  0  0  0  0  0  0  0  0  0  0
    0.6727   -4.1776   -1.3935 H   0  0  0  0  0  0  0  0  0  0  0  0
    2.1548   -1.7625   -0.0800 H   0  0  0  0  0  0  0  0  0  0  0  0
    2.7409   -1.0499   -1.5992 H   0  0  0  0  0  0  0  0  0  0  0  0
    2.8151   -2.7969   -1.3624 H   0  0  0  0  0  0  0  0  0  0  0  0
   -0.9341   -0.3975   -4.4124 H   0  0  0  0  0  0  0  0  0  0  0  0
   -0.5865   -2.0883   -3.9880 H   0  0  0  0  0  0  0  0  0  0  0  0
   -2.2271   -1.6136   -4.4320 H   0  0  0  0  0  0  0  0  0  0  0  0
   -2.3508    1.0376   -2.7854 H   0  0  0  0  0  0  0  0  0  0  0  0
   -2.9436    0.2997   -1.2810 H   0  0  0  0  0  0  0  0  0  0  0  0
   -3.6207   -0.2017   -2.8314 H   0  0  0  0  0  0  0  0  0  0  0  0
   -1.1843    3.0829   -0.6257 H   0  0  0  0  0  0  0  0  0  0  0  0
   -1.8461    1.6021   -1.3532 H   0  0  0  0  0  0  0  0  0  0  0  0
   -2.9382    2.8154   -0.6827 H   0  0  0  0  0  0  0  0  0  0  0  0
   -1.3472    3.3997    1.9407 H   0  0  0  0  0  0  0  0  0  0  0  0
   -2.1171    2.1295    2.9170 H   0  0  0  0  0  0  0  0  0  0  0  0
   -3.0984    3.1271    1.8421 H   0  0  0  0  0  0  0  0  0  0  0  0
    0.7030   -1.6492    2.4832 H   0  0  0  0  0  0  0  0  0  0  0  0
    1.4756   -0.1817    3.1230 H   0  0  0  0  0  0  0  0  0  0  0  0
    0.4134   -1.1378    4.1582 H   0  0  0  0  0  0  0  0  0  0  0  0
   -1.8550   -1.6413    2.0711 H   0  0  0  0  0  0  0  0  0  0  0  0
   -2.7806   -0.1687    2.4372 H   0  0  0  0  0  0  0  0  0  0  0  0
   -2.1032   -1.1301    3.7526 H   0  0  0  0  0  0  0  0  0  0  0  0
    0.9324   -2.1950   -2.8572 H   0  0  0  0  0  0  0  0  0  0  0  0
   -2.0326   -1.9021   -1.9785 H   0  0  0  0  0  0  0  0  0  0  0  0
   -2.7231    0.8849    0.8560 H   0  0  0  0  0  0  0  0  0  0  0  0
   -0.7435    0.9051    3.3651 H   0  0  0  0  0  0  0  0  0  0  0  0
   -1.2821   -1.2334    0.3093 H   0  0  0  0  0  0  0  0  0  0  0  0
  1  9  1  0  0  0  0
  2  9  1  0  0  0  0
  3 10  1  0  0  0  0
  4 10  1  0  0  0  0
  5 11  1  0  0  0  0
  6 11  1  0  0  0  0
  7 12  1  0  0  0  0
  8 12  1  0  0  0  0
  9 14  1  0  0  0  0
 10 14  1  0  0  0  0
 11 15  1  0  0  0  0
 12 15  1  0  0  0  0
 13 14  1  0  0  0  0
 13 15  1  0  0  0  0
 14 16  2  0  0  0  0
 15 17  2  0  0  0  0
  1 18  1  0  0  0  0
  1 19  1  0  0  0  0
  1 20  1  0  0  0  0
  2 21  1  0  0  0  0
  2 22  1  0  0  0  0
  2 23  1  0  0  0  0
  3 24  1  0  0  0  0
  3 25  1  0  0  0  0
  3 26  1  0  0  0  0
  4 27  1  0  0  0  0
  4 28  1  0  0  0  0
  4 29  1  0  0  0  0
  5 30  1  0  0  0  0
  5 31  1  0  0  0  0
  5 32  1  0  0  0  0
  6 33  1  0  0  0  0
  6 34  1  0  0  0  0
  6 35  1  0  0  0  0
  7 36  1  0  0  0  0
  7 37  1  0  0  0  0
  7 38  1  0  0  0  0
  8 39  1  0  0  0  0
  8 40  1  0  0  0  0
  8 41  1  0  0  0  0
  9 42  1  0  0  0  0
 10 43  1  0  0  0  0
 11 44  1  0  0  0  0
 12 45  1  0  0  0  0
 13 46  1  0  0  0  0
M  END
$$$$
