eMolecules_7350_6388229
  -OEChem-05261901553D

 27 27  0     1  0  0  0  0  0999 V2000
   -3.9728    2.9836    3.1453 C   0  0  0  0  0  0  0  0  0  0  0  0
   -2.9814    3.3228    2.2247 C   0  0  0  0  0  0  0  0  0  0  0  0
   -4.0877    1.6677    3.5935 C   0  0  0  0  0  0  0  0  0  0  0  0
   -2.1049    2.3461    1.7521 C   0  0  0  0  0  0  0  0  0  0  0  0
   -3.2112    0.6910    3.1209 C   0  0  0  0  0  0  0  0  0  0  0  0
   -2.2198    1.0301    2.2002 C   0  0  0  0  0  0  0  0  0  0  0  0
   -3.3538   -0.6755    3.6048 C   0  0  0  0  0  0  0  0  0  0  0  0
   -1.8965    0.3385   -0.8227 C   0  0  0  0  0  0  0  0  0  0  0  0
   -0.7749    0.3135    0.2175 C   0  0  1  0  0  0  0  0  0  0  0  0
   -1.2428   -0.0234    1.6632 C   0  0  1  0  0  0  0  0  0  0  0  0
   -0.0735   -0.1243    2.5458 N   0  0  0  0  0  0  0  0  0  0  0  0
   -4.4353   -1.1561    3.9503 O   0  0  0  0  0  0  0  0  0  0  0  0
    0.1799   -0.6627   -0.2145 O   0  0  0  0  0  0  0  0  0  0  0  0
   -1.8968   -1.2961    1.6040 O   0  0  0  0  0  0  0  0  0  0  0  0
   -4.6556    3.7439    3.5138 H   0  0  0  0  0  0  0  0  0  0  0  0
   -2.8926    4.3476    1.8759 H   0  0  0  0  0  0  0  0  0  0  0  0
   -4.8652    1.4159    4.3102 H   0  0  0  0  0  0  0  0  0  0  0  0
   -1.3357    2.6210    1.0353 H   0  0  0  0  0  0  0  0  0  0  0  0
   -2.4338   -1.2956    3.6576 H   0  0  0  0  0  0  0  0  0  0  0  0
   -2.4476   -0.6077   -0.8433 H   0  0  0  0  0  0  0  0  0  0  0  0
   -2.6280    1.1126   -0.5650 H   0  0  0  0  0  0  0  0  0  0  0  0
   -1.5170    0.5494   -1.8264 H   0  0  0  0  0  0  0  0  0  0  0  0
   -0.2665    1.2839    0.1865 H   0  0  0  0  0  0  0  0  0  0  0  0
    0.3935    0.7777    2.6231 H   0  0  0  0  0  0  0  0  0  0  0  0
   -0.3713   -0.3867    3.4841 H   0  0  0  0  0  0  0  0  0  0  0  0
    0.8813   -0.6666    0.4522 H   0  0  0  0  0  0  0  0  0  0  0  0
   -1.2455   -1.9308    1.2603 H   0  0  0  0  0  0  0  0  0  0  0  0
  1  2  1  0  0  0  0
  1  3  2  0  0  0  0
  2  4  2  0  0  0  0
  3  5  1  0  0  0  0
  4  6  1  0  0  0  0
  5  6  2  0  0  0  0
  5  7  1  0  0  0  0
  6 10  1  0  0  0  0
  7 12  2  0  0  0  0
  8  9  1  0  0  0  0
  9 10  1  0  0  0  0
  9 13  1  0  0  0  0
 10 11  1  0  0  0  0
 10 14  1  0  0  0  0
  1 15  1  0  0  0  0
  2 16  1  0  0  0  0
  3 17  1  0  0  0  0
  4 18  1  0  0  0  0
  7 19  1  0  0  0  0
  8 20  1  0  0  0  0
  8 21  1  0  0  0  0
  8 22  1  0  0  0  0
  9 23  1  0  0  0  0
 11 24  1  0  0  0  0
 11 25  1  0  0  0  0
 13 26  1  0  0  0  0
 14 27  1  0  0  0  0
M  END
$$$$
