eMolecules_1910_914331
  -OEChem-05261901553D

 15 14  0     0  0  0  0  0  0999 V2000
   -0.2448   -0.4884    0.9480 C   0  0  0  0  0  0  0  0  0  0  0  0
   -0.3627   -1.9891    0.7542 C   0  0  0  0  0  0  0  0  0  0  0  0
   -1.4411    1.4888    1.6073 C   0  0  0  0  0  0  0  0  0  0  0  0
   -1.5372    0.0536    1.4264 N   0  0  0  0  0  0  0  0  0  0  0  0
    0.8694   -2.4998    0.2611 O   0  0  0  0  0  0  0  0  0  0  0  0
   -2.6785    2.0113    2.0791 O   0  0  0  0  0  0  0  0  0  0  0  0
    0.5246   -0.2429    1.6869 H   0  0  0  0  0  0  0  0  0  0  0  0
    0.0000   -0.0000    0.0000 H   0  0  0  0  0  0  0  0  0  0  0  0
   -1.1400   -2.2118    0.0167 H   0  0  0  0  0  0  0  0  0  0  0  0
   -0.6045   -2.4985    1.6927 H   0  0  0  0  0  0  0  0  0  0  0  0
   -0.6695    1.7452    2.3412 H   0  0  0  0  0  0  0  0  0  0  0  0
   -1.2121    1.9871    0.6594 H   0  0  0  0  0  0  0  0  0  0  0  0
   -1.7581   -0.3949    2.3059 H   0  0  0  0  0  0  0  0  0  0  0  0
    0.7515   -3.4570    0.1518 H   0  0  0  0  0  0  0  0  0  0  0  0
   -3.3509    1.8003    1.4091 H   0  0  0  0  0  0  0  0  0  0  0  0
  1  2  1  0  0  0  0
  1  4  1  0  0  0  0
  2  5  1  0  0  0  0
  3  4  1  0  0  0  0
  3  6  1  0  0  0  0
  1  7  1  0  0  0  0
  1  8  1  0  0  0  0
  2  9  1  0  0  0  0
  2 10  1  0  0  0  0
  3 11  1  0  0  0  0
  3 12  1  0  0  0  0
  4 13  1  0  0  0  0
  5 14  1  0  0  0  0
  6 15  1  0  0  0  0
M  END
$$$$
