eMolecules_6388_5418414
  -OEChem-05261901553D

 10 10  0     0  0  0  0  0  0999 V2000
   -1.2891    0.2735    0.3392 C   0  0  0  0  0  0  0  0  0  0  0  0
   -0.0887    1.1106    0.1010 C   0  0  0  0  0  0  0  0  0  0  0  0
    0.4079   -0.9316   -0.1676 C   0  0  0  0  0  0  0  0  0  0  0  0
   -0.9484   -0.9514    0.1674 N   0  0  0  0  0  0  0  0  0  0  0  0
    0.9420    0.2658   -0.2151 N   0  0  0  0  0  0  0  0  0  0  0  0
    1.0924   -2.0892   -0.4194 N   0  0  0  0  0  0  0  0  0  0  0  0
   -0.1163    2.3222    0.1946 O   0  0  0  0  0  0  0  0  0  0  0  0
   -2.2523    0.7231    0.6094 H   0  0  0  0  0  0  0  0  0  0  0  0
    2.0571   -2.0269   -0.6543 H   0  0  0  0  0  0  0  0  0  0  0  0
    0.6014   -2.9523   -0.3589 H   0  0  0  0  0  0  0  0  0  0  0  0
  1  2  1  0  0  0  0
  1  4  2  0  0  0  0
  2  5  1  0  0  0  0
  2  7  2  0  0  0  0
  3  4  1  0  0  0  0
  3  5  2  0  0  0  0
  3  6  1  0  0  0  0
  1  8  1  0  0  0  0
  6  9  1  0  0  0  0
  6 10  1  0  0  0  0
M  END
$$$$
