eMolecules_2552_1558671
  -OEChem-05261901553D

 29 30  0     0  0  0  0  0  0999 V2000
    5.9876   -3.1326   -0.3367 C   0  0  0  0  0  0  0  0  0  0  0  0
    5.0216   -4.0228    0.1325 C   0  0  0  0  0  0  0  0  0  0  0  0
    5.5993   -1.9548   -0.9751 C   0  0  0  0  0  0  0  0  0  0  0  0
    3.6673   -3.7352   -0.0369 C   0  0  0  0  0  0  0  0  0  0  0  0
    4.2449   -1.6672   -1.1446 C   0  0  0  0  0  0  0  0  0  0  0  0
    3.2789   -2.5574   -0.6755 C   0  0  0  0  0  0  0  0  0  0  0  0
   -1.7201   -0.7443    1.5982 C   0  0  0  0  0  0  0  0  0  0  0  0
   -2.0374   -0.4133    0.1657 C   0  0  0  0  0  0  0  0  0  0  0  0
    0.1962   -0.2531    0.5038 C   0  0  0  0  0  0  0  0  0  0  0  0
    0.8786    1.0651    0.1806 C   0  0  0  0  0  0  0  0  0  0  0  0
    1.2040   -1.3353    0.5293 N   0  0  0  0  0  0  0  0  0  0  0  0
    1.4333   -1.3105   -2.0352 O   0  0  0  0  0  0  0  0  0  0  0  0
    0.8563   -3.4615   -0.8671 O   0  0  0  0  0  0  0  0  0  0  0  0
   -0.4295   -0.1662    1.7904 O   0  0  0  0  0  0  0  0  0  0  0  0
   -0.7818   -0.5573   -0.4982 O   0  0  0  0  0  0  0  0  0  0  0  0
    1.4810    0.9982   -1.0195 F   0  0  0  0  0  0  0  0  0  0  0  0
   -0.0214    2.0634    0.1528 F   0  0  0  0  0  0  0  0  0  0  0  0
    1.8070    1.3514    1.1100 F   0  0  0  0  0  0  0  0  0  0  0  0
    1.5625   -2.1949   -0.8929 S   0  0  0  0  0  0  0  0  0  0  0  0
    7.0424   -3.3563   -0.2057 H   0  0  0  0  0  0  0  0  0  0  0  0
    5.3235   -4.9404    0.6287 H   0  0  0  0  0  0  0  0  0  0  0  0
    6.3516   -1.2624   -1.3409 H   0  0  0  0  0  0  0  0  0  0  0  0
    2.9229   -4.4360    0.3315 H   0  0  0  0  0  0  0  0  0  0  0  0
    3.9537   -0.7475   -1.6445 H   0  0  0  0  0  0  0  0  0  0  0  0
   -2.4399   -0.3316    2.3093 H   0  0  0  0  0  0  0  0  0  0  0  0
   -1.6365   -1.8255    1.7532 H   0  0  0  0  0  0  0  0  0  0  0  0
   -2.7876   -1.0729   -0.2770 H   0  0  0  0  0  0  0  0  0  0  0  0
   -2.3606    0.6276    0.0562 H   0  0  0  0  0  0  0  0  0  0  0  0
    1.9130   -1.2613    1.2635 H   0  0  0  0  0  0  0  0  0  0  0  0
  1  2  1  0  0  0  0
  1  3  2  0  0  0  0
  2  4  2  0  0  0  0
  3  5  1  0  0  0  0
  4  6  1  0  0  0  0
  5  6  2  0  0  0  0
  6 19  1  0  0  0  0
  7  8  1  0  0  0  0
  7 14  1  0  0  0  0
  8 15  1  0  0  0  0
  9 10  1  0  0  0  0
  9 11  1  0  0  0  0
  9 14  1  0  0  0  0
  9 15  1  0  0  0  0
 10 16  1  0  0  0  0
 10 17  1  0  0  0  0
 10 18  1  0  0  0  0
 11 19  1  0  0  0  0
 12 19  2  0  0  0  0
 13 19  2  0  0  0  0
  1 20  1  0  0  0  0
  2 21  1  0  0  0  0
  3 22  1  0  0  0  0
  4 23  1  0  0  0  0
  5 24  1  0  0  0  0
  7 25  1  0  0  0  0
  7 26  1  0  0  0  0
  8 27  1  0  0  0  0
  8 28  1  0  0  0  0
 11 29  1  0  0  0  0
M  END
$$$$
