eMolecules_1100_102721
  -OEChem-05261901553D

 19 20  0     0  0  0  0  0  0999 V2000
    1.3947   -1.1367   -0.9868 C   0  0  0  0  0  0  0  0  0  0  0  0
    2.2936   -0.4766   -1.7305 C   0  0  0  0  0  0  0  0  0  0  0  0
    3.2779   -2.6161   -1.7494 C   0  0  0  0  0  0  0  0  0  0  0  0
    0.1629   -0.6247   -0.3604 C   0  0  0  0  0  0  0  0  0  0  0  0
    2.2467    0.9721   -2.1042 C   0  0  0  0  0  0  0  0  0  0  0  0
    4.4250   -0.7271   -2.9919 C   0  0  0  0  0  0  0  0  0  0  0  0
   -0.5037    1.3466    0.7158 N   0  0  0  0  0  0  0  0  0  0  0  0
   -0.3695    0.5147    1.6157 N   0  0  0  0  0  0  0  0  0  0  0  0
    3.3529   -1.2818   -2.1669 N   0  0  0  0  0  0  0  0  0  0  0  0
    0.4383    0.3878    0.5334 N   0  0  0  0  0  0  0  0  0  0  0  0
   -0.9325   -1.0931   -0.6497 O   0  0  0  0  0  0  0  0  0  0  0  0
    4.3224   -3.8825   -2.0490 S   0  0  0  0  0  0  0  0  0  0  0  0
    1.8058   -2.8076   -0.7791 S   0  0  0  0  0  0  0  0  0  0  0  0
    2.7630    1.5618   -1.3487 H   0  0  0  0  0  0  0  0  0  0  0  0
    1.2104    1.2994   -2.1736 H   0  0  0  0  0  0  0  0  0  0  0  0
    2.7295    1.1170   -3.0695 H   0  0  0  0  0  0  0  0  0  0  0  0
    5.2296   -0.3474   -2.3569 H   0  0  0  0  0  0  0  0  0  0  0  0
    4.0437    0.0938   -3.6053 H   0  0  0  0  0  0  0  0  0  0  0  0
    4.8316   -1.4982   -3.6518 H   0  0  0  0  0  0  0  0  0  0  0  0
  1  2  2  0  0  0  0
  1  4  1  0  0  0  0
  1 13  1  0  0  0  0
  2  5  1  0  0  0  0
  2  9  1  0  0  0  0
  3  9  1  0  0  0  0
  3 12  2  0  0  0  0
  3 13  1  0  0  0  0
  4 10  1  0  0  0  0
  4 11  2  0  0  0  0
  6  9  1  0  0  0  0
  7  8  2  0  0  0  0
  7 10  1  0  0  0  0
  8 10  1  0  0  0  0
  5 14  1  0  0  0  0
  5 15  1  0  0  0  0
  5 16  1  0  0  0  0
  6 17  1  0  0  0  0
  6 18  1  0  0  0  0
  6 19  1  0  0  0  0
M  END
$$$$
