eMolecules_1102_105373
  -OEChem-05261901553D

 18 18  0     0  0  0  0  0  0999 V2000
    1.8851   -1.0363   -0.1124 C   0  0  0  0  0  0  0  0  0  0  0  0
    0.8066   -0.4630    0.5610 C   0  0  0  0  0  0  0  0  0  0  0  0
    2.9210   -1.6309    0.6081 C   0  0  0  0  0  0  0  0  0  0  0  0
    0.7638   -0.4841    1.9551 C   0  0  0  0  0  0  0  0  0  0  0  0
    2.8783   -1.6520    2.0022 C   0  0  0  0  0  0  0  0  0  0  0  0
    1.7997   -1.0786    2.6757 C   0  0  0  0  0  0  0  0  0  0  0  0
    1.0498    0.0284    4.7365 C   0  0  0  0  0  0  0  0  0  0  0  0
    2.3446   -2.1182    4.7962 N   0  0  0  0  0  0  0  0  0  0  0  0
    1.7568   -1.1003    4.0852 N   0  0  0  0  0  0  0  0  0  0  0  0
    2.2460   -2.0359    6.0248 O   0  0  0  0  0  0  0  0  0  0  0  0
    1.9184   -1.0196   -1.1980 H   0  0  0  0  0  0  0  0  0  0  0  0
    0.0003   -0.0001   -0.0001 H   0  0  0  0  0  0  0  0  0  0  0  0
    3.7609   -2.0773    0.0835 H   0  0  0  0  0  0  0  0  0  0  0  0
   -0.0810   -0.0345    2.4703 H   0  0  0  0  0  0  0  0  0  0  0  0
    3.6911   -2.1183    2.5532 H   0  0  0  0  0  0  0  0  0  0  0  0
   -0.0077   -0.2157    4.8667 H   0  0  0  0  0  0  0  0  0  0  0  0
    1.1301    0.9294    4.1224 H   0  0  0  0  0  0  0  0  0  0  0  0
    1.4872    0.2327    5.7175 H   0  0  0  0  0  0  0  0  0  0  0  0
  1  2  1  0  0  0  0
  1  3  2  0  0  0  0
  2  4  2  0  0  0  0
  3  5  1  0  0  0  0
  4  6  1  0  0  0  0
  5  6  2  0  0  0  0
  6  9  1  0  0  0  0
  7  9  1  0  0  0  0
  8  9  1  0  0  0  0
  8 10  2  0  0  0  0
  1 11  1  0  0  0  0
  2 12  1  0  0  0  0
  3 13  1  0  0  0  0
  4 14  1  0  0  0  0
  5 15  1  0  0  0  0
  7 16  1  0  0  0  0
  7 17  1  0  0  0  0
  7 18  1  0  0  0  0
M  END
$$$$
