eMolecules_8959_8008045
  -OEChem-05261901553D

 22 23  0     0  0  0  0  0  0999 V2000
   -0.7628    2.9887   -0.1504 C   0  0  0  0  0  0  0  0  0  0  0  0
    0.6534    2.9777    0.1286 C   0  0  0  0  0  0  0  0  0  0  0  0
   -1.4511    1.8475   -0.2854 C   0  0  0  0  0  0  0  0  0  0  0  0
    1.3522    1.8428    0.2667 C   0  0  0  0  0  0  0  0  0  0  0  0
   -1.3927   -0.6134   -0.2739 C   0  0  0  0  0  0  0  0  0  0  0  0
   -0.7863    0.5718   -0.1543 C   0  0  0  0  0  0  0  0  0  0  0  0
   -0.6651   -1.8509   -0.1311 C   0  0  0  0  0  0  0  0  0  0  0  0
    0.6783    0.5159    0.1340 C   0  0  0  0  0  0  0  0  0  0  0  0
    0.8064   -1.8165    0.1585 C   0  0  0  0  0  0  0  0  0  0  0  0
   -1.2641   -3.0451   -0.2495 C   0  0  0  0  0  0  0  0  0  0  0  0
    1.3778   -0.5668    0.2716 N   0  0  0  0  0  0  0  0  0  0  0  0
   -0.5945   -4.2177   -0.1181 N   0  0  0  0  0  0  0  0  0  0  0  0
    1.4540   -2.8517    0.2853 O   0  0  0  0  0  0  0  0  0  0  0  0
   -1.2881   -5.4059   -0.2225 O   0  0  0  0  0  0  0  0  0  0  0  0
   -1.2555    3.9500   -0.2478 H   0  0  0  0  0  0  0  0  0  0  0  0
    1.1484    3.9385    0.2259 H   0  0  0  0  0  0  0  0  0  0  0  0
   -2.5155    1.8725   -0.4947 H   0  0  0  0  0  0  0  0  0  0  0  0
    2.4159    1.8588    0.4765 H   0  0  0  0  0  0  0  0  0  0  0  0
   -2.4579   -0.6678   -0.4842 H   0  0  0  0  0  0  0  0  0  0  0  0
   -2.3207   -3.1252   -0.4567 H   0  0  0  0  0  0  0  0  0  0  0  0
    0.3928   -4.2277    0.0764 H   0  0  0  0  0  0  0  0  0  0  0  0
   -0.5793   -6.0581   -0.0911 H   0  0  0  0  0  0  0  0  0  0  0  0
  1  2  1  0  0  0  0
  1  3  2  0  0  0  0
  2  4  2  0  0  0  0
  3  6  1  0  0  0  0
  4  8  1  0  0  0  0
  5  6  2  0  0  0  0
  5  7  1  0  0  0  0
  6  8  1  0  0  0  0
  7  9  1  0  0  0  0
  7 10  2  0  0  0  0
  8 11  2  0  0  0  0
  9 11  1  0  0  0  0
  9 13  2  0  0  0  0
 10 12  1  0  0  0  0
 12 14  1  0  0  0  0
  1 15  1  0  0  0  0
  2 16  1  0  0  0  0
  3 17  1  0  0  0  0
  4 18  1  0  0  0  0
  5 19  1  0  0  0  0
 10 20  1  0  0  0  0
 12 21  1  0  0  0  0
 14 22  1  0  0  0  0
M  END
$$$$
