eMolecules_8909_7957856
  -OEChem-05261901553D

 22 23  0     0  0  0  0  0  0999 V2000
    2.0075   -0.4788    0.6046 C   0  0  0  0  0  0  0  0  0  0  0  0
    0.6383   -0.3105    0.8235 C   0  0  0  0  0  0  0  0  0  0  0  0
    2.8602   -0.8780    1.6415 C   0  0  0  0  0  0  0  0  0  0  0  0
    0.0716   -0.5343    2.0827 C   0  0  0  0  0  0  0  0  0  0  0  0
    1.9446   -1.5634    4.9672 C   0  0  0  0  0  0  0  0  0  0  0  0
    2.3079   -1.1070    2.9131 C   0  0  0  0  0  0  0  0  0  0  0  0
    0.9398   -0.9311    3.1003 C   0  0  0  0  0  0  0  0  0  0  0  0
   -1.0220   -0.0751    5.7857 C   0  0  0  0  0  0  0  0  0  0  0  0
   -1.3394   -2.4156    5.1623 C   0  0  0  0  0  0  0  0  0  0  0  0
    2.9153   -1.4999    4.0836 N   0  0  0  0  0  0  0  0  0  0  0  0
    0.7355   -1.2298    4.4230 N   0  0  0  0  0  0  0  0  0  0  0  0
   -0.4373   -1.2032    5.0789 N   0  0  0  0  0  0  0  0  0  0  0  0
   -2.0818    0.0174    6.4010 O   0  0  0  0  0  0  0  0  0  0  0  0
    2.4185   -0.2978   -0.3850 H   0  0  0  0  0  0  0  0  0  0  0  0
   -0.0001   -0.0018   -0.0009 H   0  0  0  0  0  0  0  0  0  0  0  0
    3.9226   -1.0068    1.4611 H   0  0  0  0  0  0  0  0  0  0  0  0
   -0.9914   -0.4035    2.2513 H   0  0  0  0  0  0  0  0  0  0  0  0
    2.0570   -1.8425    6.0062 H   0  0  0  0  0  0  0  0  0  0  0  0
   -0.3720    0.8035    5.7264 H   0  0  0  0  0  0  0  0  0  0  0  0
   -2.0379   -2.4228    4.3215 H   0  0  0  0  0  0  0  0  0  0  0  0
   -1.9108   -2.3982    6.0943 H   0  0  0  0  0  0  0  0  0  0  0  0
   -0.7443   -3.3323    5.1332 H   0  0  0  0  0  0  0  0  0  0  0  0
  1  2  2  0  0  0  0
  1  3  1  0  0  0  0
  2  4  1  0  0  0  0
  3  6  2  0  0  0  0
  4  7  2  0  0  0  0
  5 10  2  0  0  0  0
  5 11  1  0  0  0  0
  6  7  1  0  0  0  0
  6 10  1  0  0  0  0
  7 11  1  0  0  0  0
  8 12  1  0  0  0  0
  8 13  2  0  0  0  0
  9 12  1  0  0  0  0
 11 12  1  0  0  0  0
  1 14  1  0  0  0  0
  2 15  1  0  0  0  0
  3 16  1  0  0  0  0
  4 17  1  0  0  0  0
  5 18  1  0  0  0  0
  8 19  1  0  0  0  0
  9 20  1  0  0  0  0
  9 21  1  0  0  0  0
  9 22  1  0  0  0  0
M  END
$$$$
