eMolecules_1102_105374
  -OEChem-05261901553D

 17 16  0     0  0  0  0  0  0999 V2000
    0.4354    0.1476    0.1265 C   0  0  0  0  0  0  0  0  0  0  0  0
   -0.0120    3.6262    1.2165 C   0  0  0  0  0  0  0  0  0  0  0  0
   -0.0822   -2.1156   -0.7254 C   0  0  0  0  0  0  0  0  0  0  0  0
    0.7700    2.3621    0.9297 C   0  0  0  0  0  0  0  0  0  0  0  0
   -1.9331   -0.3943   -0.4737 N   0  0  0  0  0  0  0  0  0  0  0  0
   -0.4990   -0.7738   -0.3481 N   0  0  0  0  0  0  0  0  0  0  0  0
    1.6347   -0.0906    0.2581 O   0  0  0  0  0  0  0  0  0  0  0  0
   -2.6475   -1.3053   -0.9059 O   0  0  0  0  0  0  0  0  0  0  0  0
   -0.1268    1.3609    0.4350 O   0  0  0  0  0  0  0  0  0  0  0  0
   -0.4899    4.0039    0.3083 H   0  0  0  0  0  0  0  0  0  0  0  0
   -0.7836    3.4401    1.9708 H   0  0  0  0  0  0  0  0  0  0  0  0
    0.6456    4.4038    1.6191 H   0  0  0  0  0  0  0  0  0  0  0  0
   -0.1440   -2.7846    0.1369 H   0  0  0  0  0  0  0  0  0  0  0  0
    0.9493   -2.1031   -1.0879 H   0  0  0  0  0  0  0  0  0  0  0  0
   -0.7277   -2.5029   -1.5183 H   0  0  0  0  0  0  0  0  0  0  0  0
    1.2454    1.9897    1.8421 H   0  0  0  0  0  0  0  0  0  0  0  0
    1.5399    2.5497    0.1753 H   0  0  0  0  0  0  0  0  0  0  0  0
  1  6  1  0  0  0  0
  1  7  2  0  0  0  0
  1  9  1  0  0  0  0
  2  4  1  0  0  0  0
  3  6  1  0  0  0  0
  4  9  1  0  0  0  0
  5  6  1  0  0  0  0
  5  8  2  0  0  0  0
  2 10  1  0  0  0  0
  2 11  1  0  0  0  0
  2 12  1  0  0  0  0
  3 13  1  0  0  0  0
  3 14  1  0  0  0  0
  3 15  1  0  0  0  0
  4 16  1  0  0  0  0
  4 17  1  0  0  0  0
M  END
$$$$
